7 

N                  -3.38716433   -0.00000300    0.00095486 
C                  -2.21431339    0.00000636   -0.00094629 
C                  -0.16600087    0.00000451   -0.00115304 
H                  -0.09932946    0.93318900   -0.53522779 
H                  -0.10015662   -0.00391387    1.07403070 
H                  -0.09933343   -0.92925139   -0.54203354 
Cl                  2.18181712   -0.00000321    0.00043114 

