7 

N                  -3.42184293   -0.00000370    0.00106871 
C                  -2.25024191    0.00000603   -0.00100737 
C                  -0.03508775    0.00000347   -0.00117510 
H                  -0.10136986    0.93271909   -0.53509232 
H                  -0.10231344   -0.00394795    1.07342797 
H                  -0.10137711   -0.92875079   -0.54195364 
Cl                  2.16328849   -0.00000238    0.00042526 

