7 

N                  -3.37523560   -0.00000284    0.00092460 
C                  -2.20187137    0.00000628   -0.00092244 
C                  -0.20949410    0.00000486   -0.00114031 
H                  -0.09937021    0.93067593   -0.53374927 
H                  -0.10012455   -0.00389880    1.07115727 
H                  -0.09937629   -0.92675737   -0.54052168 
Cl                  2.18769734   -0.00000325    0.00042736 

