7 

N                  -3.59783261   -0.00000587    0.00144159 
C                  -2.42316554   -0.00002050   -0.00148327 
C                   0.34694425    0.00002914   -0.00118207 
H                   0.01070970    0.89457755   -0.51398358 
H                   0.00883132   -0.00357880    1.02924957 
H                   0.01069902   -0.89089606   -0.52023576 
Cl                  2.15234086   -0.00000359    0.00048060 

