7 

N                  -3.37176737   -0.00000280    0.00091606 
C                  -2.19825973    0.00000627   -0.00091522 
C                  -0.22189183    0.00000494   -0.00113706 
H                  -0.09964146    0.92974564   -0.53320527 
H                  -0.10037607   -0.00389375    1.07009468 
H                  -0.09964892   -0.92583343   -0.53996710 
Cl                  2.18934626   -0.00000326    0.00042615 

