7 

N                  -3.43963547   -0.00000375    0.00108988 
C                  -2.26838054    0.00000789   -0.00108263 
C                   0.03349755    0.00000310   -0.00115570 
H                  -0.10062478    0.92766227   -0.53228450 
H                  -0.10160884   -0.00391606    1.06761971 
H                  -0.10063605   -0.92373048   -0.53908179 
Cl                  2.15303885   -0.00000273    0.00043966 

