7 

N                  -3.39387853   -0.00000310    0.00097266 
C                  -2.22131018    0.00000642   -0.00095907 
C                  -0.14109957    0.00000431   -0.00116003 
H                  -0.09969004    0.93405156   -0.53574638 
H                  -0.10055027   -0.00392052    1.07502450 
H                  -0.09969390   -0.93010548   -0.54256642 
Cl                  2.17839334   -0.00000317    0.00043247 

