7 

N                  -3.44446104   -0.00000375    0.00109468 
C                  -2.27324103    0.00000853   -0.00110498 
C                   0.05217613    0.00000295   -0.00114860 
H                  -0.09974619    0.92581914   -0.53123938 
H                  -0.10071024   -0.00390729    1.06550089 
H                  -0.09975725   -0.92189793   -0.53801973 
Cl                  2.15015271   -0.00000285    0.00044331 

