7 

N                  -3.38884817   -0.00000303    0.00095926 
C                  -2.21606973    0.00000637   -0.00094954 
C                  -0.15977806    0.00000445   -0.00115487 
H                  -0.09940339    0.93344565   -0.53538019 
H                  -0.10023959   -0.00391566    1.07432545 
H                  -0.09940730   -0.92950592   -0.54219018 
Cl                  2.18096514   -0.00000320    0.00043155 

