7 

N                  -3.50646162   -0.00000535    0.00121905 
C                  -2.33359163    0.00001858   -0.00144075 
C                   0.25868132   -0.00000006   -0.00091779 
H                  -0.04873268    0.90086471   -0.51654237 
H                  -0.04896232   -0.00376812    1.03691047 
H                  -0.04872200   -0.89709961   -0.52306649 
Cl                  2.12039335   -0.00000414    0.00039896 

