5
M1_conf_0_0
C                  -4.25200000    7.78000000    9.03600000 
H                  -4.58947600    8.68781900    8.50630300 
H                  -3.47074100    8.06924200    9.74899000 
H                  -5.13079760    7.32033239    9.52896637 
H                  -3.80554575    7.00499315    8.31051185 
5
M1_conf_0_1
C                  -5.46600000    7.14500000    9.71700000 
H                  -6.05932900    7.88545700   10.26389300 
H                  -5.16674900    6.36041400   10.42876000 
H                  -4.58720240    7.60466761    9.22403363 
H                  -6.10031088    6.71741002    8.86339205 
4
M1_conf_0_2
N                  -6.27300000    6.60100000    8.63100000 
H                  -5.70794748    6.98190282    9.39140525 
H                  -7.20495156    6.97069979    8.44404954 
H                  -5.89839889    5.84619626    8.05684502 
5
M1_conf_0_3
C                  -7.60400000    7.12900000    8.36400000 
H                  -8.41437500    6.59769500    8.89370600 
H                  -7.82041600    7.07988200    7.28992800 
H                  -7.65375700    8.18522800    8.65410500 
H                  -6.55781936    6.71398619    8.57386494 
5
M1_conf_0_4
C                  -5.73800000    5.52300000    7.81100000 
H                  -6.50020700    5.20348600    7.09340000 
H                  -5.45311200    4.65317600    8.42602200 
H                  -6.15851588    6.37031986    8.45552902 
H                  -4.84327690    5.93995834    7.30717534 
5
M1_conf_0_5
C                  -4.50200000    6.09900000    7.11500000 
H                  -3.88489300    5.31754400    6.65651800 
H                  -4.83362600    6.78953100    6.31963200 
H                  -5.39672310    5.68204166    7.61882466 
H                  -3.85904300    6.64527765    7.89943898 
4
M1_conf_0_6
N                  -3.68400000    6.79400000    8.11300000 
H                  -4.08170735    7.48438635    8.75927445 
H                  -4.25675460    6.30736865    7.41421138 
H                  -2.67852860    6.61755237    8.13470586 
5
M1_conf_0_7
C                  -2.24800000    6.54200000    8.14400000 
H                  -1.88175700    6.38259700    7.12025800 
H                  -1.74097000    7.45118600    8.49764300 
H                  -3.37671180    6.74007477    8.11963366 
H                  -1.92007964    5.69650115    8.76509419 
12
M1_conf_0_8
C                  -1.79500000    5.37400000    9.00200000 
C                  -2.49200000    4.95600000   10.14500000 
H                  -3.40238700    5.46946200   10.43223000 
C                  -2.02200000    3.87900000   10.90500000 
H                  -2.56095700    3.57514100   11.80085900 
C                  -0.62300000    4.71600000    8.62600000 
H                  -0.08247600    5.02807700    7.73502200 
C                  -0.15900000    3.64100000    9.38400000 
H                   0.75043300    3.11321300    9.10949400 
C                  -0.85400000    3.21600000   10.52100000 
H                  -2.12292036    6.21949885    8.38090581 
H                  -0.45224327    2.37339670   11.09359383 
6
M1_conf_0_9
C                  -0.29900000    2.05200000   11.31200000 
O                   0.91600000    1.93400000   11.35500000 
N                  -1.11300000    1.15200000   11.85900000 
H                  -2.09312500    1.26966800   11.63987300 
H                  -0.70075673    2.89460330   10.73940617 
H                  -0.93795275    0.47211648   12.51157615 
12
M1_conf_0_10
C                  -0.86300000    0.18100000   12.79100000 
C                   0.35000000   -0.04500000   13.47000000 
H                   1.21608100    0.55816100   13.26334200 
C                  -1.95700000   -0.63600000   13.05400000 
H                  -2.89013500   -0.46588400   12.51732700 
C                  -1.89100000   -1.67200000   13.98500000 
H                  -2.75466900   -2.30072800   14.17904200 
C                  -0.68900000   -1.89500000   14.65700000 
C                   0.42500000   -1.09000000   14.41500000 
H                  -1.05950275    0.94421668   12.05843775 
H                  -0.65352959   -2.71443895   15.38305766 
H                   1.31004839   -1.33209139   14.98721601 
5
M1_conf_0_11
C                  -0.64000000   -3.02700000   15.66000000 
H                  -1.60282800   -3.54231200   15.70225600 
H                  -0.41967500   -2.67364100   16.67687800 
H                   0.11719700   -3.77953000   15.40067100 
H                  -0.67547041   -2.20756105   14.93394234 
4
M1_conf_0_12
N                   1.55100000   -1.39800000   15.14300000 
H                   1.51411100   -2.14538800   15.81841200 
H                   0.76258719   -1.18234179   14.63326241 
H                   2.41573342   -0.98628887   15.10168885 
10
M1_conf_0_13
C                   2.78600000   -0.81000000   15.08400000 
N                   3.09700000    0.22600000   14.26900000 
N                   3.71500000   -1.27700000   15.95200000 
C                   5.00000000   -0.79300000   15.99100000 
H                   5.67028600   -1.26099200   16.70557900 
C                   5.35400000    0.26600000   15.15800000 
H                   6.36058900    0.65906000   15.18637600 
C                   4.35600000    0.77700000   14.29500000 
H                   1.81527642   -1.27217447   15.13037465 
H                   4.54493425    1.56748351   13.68114467 
11
M1_conf_0_14
C                   4.61700000    1.86900000   13.44700000 
C                   3.62900000    2.37000000   12.60100000 
H                   2.64928900    1.91648000   12.55266800 
C                   3.93800000    3.46500000   11.77800000 
H                   3.17544900    3.85650900   11.10978600 
C                   5.22000000    4.01300000   11.82000000 
H                   5.51743800    4.84909700   11.19127500 
N                   6.15300000    3.52800000   12.65800000 
C                   5.87000000    2.49200000   13.47000000 
H                   6.68354400    2.18708800   14.11734100 
H                   4.42806575    1.07851649   14.06085533 
