6 

C                  -0.15538260   -0.09622680    0.64919500 
H                   0.07679600    0.91806100    0.40244860 
H                   0.60048040   -0.65732810    0.24009120 
H                  -1.04407440   -0.57887800    0.49866360 
Cl                  0.03573920    0.02232710    2.66020520 
Cl                  0.02758640    0.02043840   -2.91539600 

