6 

C                  -0.01656680   -0.12204670    0.57495250 
H                   0.17959390    1.04040820    0.30811170 
H                   0.89773480   -0.69145440    0.21266610 
H                  -0.87777280   -0.64065910    0.31882690 
Cl                  0.00558240    0.02622480    2.50485650 
Cl                 -0.00598360    0.02427330   -2.72609590 

