6 

C                  -0.39679930    0.13871240   -0.84314270 
H                  -0.72002750    1.27317020   -0.79004030 
H                   0.35325140   -0.16715450   -0.05233590 
H                  -1.24068680   -0.69084520   -0.76856370 
Cl                  0.10528920   -0.03951080    2.93367360 
Cl                  0.07675410   -0.01979370   -2.59840940 

