6 

C                  -0.11295620   -0.10071850    0.46771090 
H                   0.16895510    0.93115520    0.17715900 
H                   0.76390190   -0.71447830    0.39898520 
H                  -0.93463130   -0.66187160    0.46014420 
Cl                  0.02634730    0.02441350    2.64882020 
Cl                  0.01197630    0.02334090   -2.83880870 

