6 

C                  -0.30505190   -0.00777790    0.66760240 
H                  -0.07648820    0.96343610    0.10961510 
H                   0.41098160   -0.74152790    0.21011450 
H                  -1.13970820   -0.46194800    0.66748890 
Cl                  0.07277790    0.00061930    2.73252950 
Cl                  0.05438240    0.01008120   -2.98934130 

