6 

C                  -0.39869420    0.15947720   -0.70699320 
H                  -0.66145270    1.08989660   -0.41538680 
H                   0.56511450   -0.13305070   -0.20644280 
H                  -1.32906350   -0.57241420   -0.51401990 
Cl                  0.09302960   -0.03715600    2.86145260 
Cl                  0.08445130   -0.02841120   -2.58652740 

