6 

C                  -0.24671790   -0.06096830    0.82248460 
H                   0.11321590    0.98829220    0.54231290 
H                   0.60191790   -0.66250390    0.31193670 
H                  -1.08632560   -0.51774070    0.60529720 
Cl                  0.05163750    0.01199270    2.64458320 
Cl                  0.04307590    0.01528720   -2.96829760 

