6 

C                  -0.57254520    0.14310860   -0.81463100 
H                  -0.87167310    1.10712050   -1.02620370 
H                   0.29541570   -0.03247370   -0.15602740 
H                  -1.38880690   -0.68690320   -0.73875520 
Cl                  0.13509380   -0.04428580    3.08236970 
Cl                  0.11761980   -0.01570830   -2.74820910 

