6 

C                  -0.14408630   -0.09861960    0.63750540 
H                   0.03922520    0.88026750    0.40950060 
H                   0.57054050   -0.64103250    0.23842160 
H                  -1.09823520   -0.58227670    0.41294400 
Cl                  0.03611090    0.02362710    2.66334570 
Cl                  0.02684810    0.02066530   -2.91221370 

