6 

C                  -0.11879240   -0.11192270    0.49465540 
H                   0.04763470    0.91336470    0.28350110 
H                   0.81134210   -0.70593140    0.39191540 
H                  -1.17611710   -0.58935170    0.26383850 
Cl                  0.03295120    0.02699830    2.66621030 
Cl                  0.01643710    0.02282770   -2.86262030 

