6 

C                  -0.01386670    0.05603470   -0.31342440 
H                  -0.10599560    1.13944490   -0.01325510 
H                   0.88671600   -0.38456660   -0.20805440 
H                  -0.80975390   -0.46913020   -0.21389870 
Cl                  0.00269430   -0.01245360    2.40779600 
Cl                  0.00272640   -0.01492640   -2.28770190 

