6 

C                   0.10601540   -0.08417010    0.51796750 
H                   0.21416490    0.96599990   -0.11490280 
H                   0.95986210   -0.71912430    0.17619290 
H                  -0.79791470   -0.65482810    0.31299360 
Cl                 -0.02185090    0.01763290    2.39954470 
Cl                 -0.02553160    0.02309650   -2.58795220 

