6 

C                  -0.55145220    0.16843420   -0.76746860 
H                  -0.90442740    1.07180950   -0.59818690 
H                   0.21580570   -0.05243070   -0.06556120 
H                  -1.22606110   -0.60485700   -0.82035690 
Cl                  0.12660950   -0.04336680    3.04348180 
Cl                  0.11736840   -0.02610630   -2.73799830 

