6 

C                  -0.32408860    0.13518770   -0.45216530 
H                  -0.58442520    1.13321010   -0.47800180 
H                   0.66802810   -0.17025530    0.04559920 
H                  -1.38705720   -0.47601070   -0.53462940 
Cl                  0.07177730   -0.03241890    2.73638230 
Cl                  0.07664950   -0.02780960   -2.55363470 

