6 

C                   0.21293500   -0.05509310    0.00611588 
H                   0.17549600    1.02234000    0.01271000 
H                   1.14067000   -0.54429700   -0.04269920 
H                  -0.86108700   -0.58592000    0.08169860 
Cl                 -0.04378320    0.01096190    2.34522000 
Cl                 -0.04240570    0.01105430   -2.34881000 

