6 

C                  -0.23003630   -0.05536380    0.76410700 
H                  -0.04352300    0.93762320    0.62199330 
H                   0.52462400   -0.62072810    0.36863040 
H                  -1.35214630   -0.50626420    0.64547580 
Cl                  0.05708920    0.01131360    2.66754850 
Cl                  0.04628540    0.01403860   -2.97628810 

