6 

C                   0.18464440   -0.10731120    0.17168050 
H                   0.27456280    1.01847500   -0.02453410 
H                   1.08055150   -0.61225950    0.11930120 
H                  -0.70509030   -0.66749540   -0.34320760 
Cl                 -0.03981410    0.02403710    2.39284620 
Cl                 -0.04232230    0.02033750   -2.44456930 

