6 

C                   0.21026490   -0.08363060    0.03815190 
H                   0.10627710    1.00839980   -0.01791890 
H                   1.18294540   -0.57927420    0.03610140 
H                  -0.65991380   -0.42058800    0.24753000 
Cl                 -0.04663770    0.01309060    2.35171160 
Cl                 -0.04366040    0.01535990   -2.37246500 

