6 

C                  -0.06826710    0.07228550   -0.43720150 
H                  -0.25028990    1.08415690   -0.02545800 
H                   0.74195460   -0.34627850    0.04994830 
H                  -0.85946210   -0.41362570   -0.22392920 
Cl                  0.01832550   -0.01715010    2.46614200 
Cl                  0.01547420   -0.01689450   -2.31041010 

