6 

C                  -0.24405620   -0.05387490    0.80320710 
H                   0.09820390    0.96152250    0.60511310 
H                   0.62677240   -0.66416970    0.30034220 
H                  -1.24573460   -0.56413740    0.62163080 
Cl                  0.05374400    0.01222680    2.65263980 
Cl                  0.04436010    0.01480320   -2.97167380 

