5

H             0.0000000000000           0.0000000000000           0.0000000000000
C             1.0956000000000           0.0000000000000           0.0000000000000
H             1.4325200000000           0.0000000000000           1.0412500000000
H             1.5051100000000           0.8666100000000          -0.5510300000000
H             1.4277900000000          -0.9365100000000          -0.4571700000000
