30
M1_conf_0_0
Ir                  0.00000000    0.00000000    0.00000000 
B                   0.00000000    0.00000000    2.03650433 
B                   2.07251206    0.00000000    0.13778621 
B                   0.52856101    2.05903422    0.12333367 
N                  -2.04936424    0.76142091   -0.34783275 
N                  -0.25516373    0.12485426   -2.25962837 
C                  -2.46988261    0.84670500   -1.63161067 
C                  -2.87691373    1.11751533    0.64630278 
C                  -1.48852101    0.48641675   -2.68352125 
C                   0.68715554   -0.19315598   -3.16062519 
C                  -3.77004340    1.27714821   -1.92773243 
C                  -4.17954360    1.54760900    0.41779488 
H                  -2.45384637    1.06769020    1.64250176 
C                  -1.79630739    0.51983062   -4.05051179 
C                   0.44630749   -0.18030855   -4.53205865 
H                   1.65803802   -0.44279256   -2.74752300 
C                  -4.63546361    1.62295591   -0.89659216 
H                  -4.10686316    1.34578475   -2.95475553 
H                  -4.81318245    1.81728706    1.25610336 
C                  -0.82213574    0.17949334   -4.98311496 
H                  -2.78573979    0.80272788   -4.38833710 
H                   1.23965154   -0.44810553   -5.22209901 
H                  -5.64609670    1.95243849   -1.11909750 
H                  -1.05273914    0.19832083   -6.04430018 
H                   0.29917755   -0.89442192    2.72286356 
H                  -0.40263203    0.87290732    2.69486343 
H                   2.75576203    0.06481312   -0.80100814 
H                   2.70651140   -0.07704024    1.09590651 
H                  -0.13995277    2.88157949   -0.34815706 
H                   1.45941752    2.53725971    0.61718871 
3
M1_conf_0_1
O                  -0.27575414    3.04867070   -0.44393533 
H                   0.24556675    2.40723287   -0.07625709 
H                   0.08917350    3.93365202   -0.21896183 
3
M1_conf_0_2
O                   1.64851100    2.63440607    0.71751004 
H                   0.92260981    2.26147593    0.33239165 
H                   1.65124598    3.60154553    0.54631669 
5
M1_conf_0_3
C                   0.25558374    4.33721135   -0.11637192 
H                   0.29095399    4.95935820   -1.01749049 
H                  -0.40522381    4.82396521    0.61276477 
H                  -0.18069248    3.27920351   -0.38533096 
H                   1.26678691    4.12392439    0.30682843 
5
M1_conf_0_4
C                   1.65249316    4.04256971    0.46825101 
H                   1.84676250    4.57895763    1.40324388 
H                   2.45728374    4.28112052   -0.23973140 
H                   1.64922345    2.88634063    0.67291511 
H                   0.64128999    4.25585667    0.04505066 
5
M1_conf_0_5
C                   4.26039787   -0.02629117   -0.57047643 
H                   4.86082040    0.73433630   -1.08065901 
H                   4.64761721   -1.01712104   -0.84383590 
H                   3.13891951    0.05932420   -0.91635047 
H                   4.21501602    0.11901854    0.53437134 
5
M1_conf_0_6
C                   4.19770589    0.17444445    0.95579673 
H                   4.85428500   -0.50720982    1.50647394 
H                   4.43860810    1.20632168    1.24179213 
H                   3.07904930   -0.04489708    1.23064971 
H                   4.24308774    0.02913474   -0.14905104 
3
M1_conf_0_7
O                  -0.48442239    1.05022904    2.82860199 
H                  -0.17044160    0.36951784    2.31519993 
H                  -0.48213514    0.77913800    3.77400751 
3
M1_conf_0_8
O                   0.35995225   -1.07611410    2.86229005 
H                   0.12664740   -0.37862537    2.32705291 
H                   0.34412182   -0.78367058    3.80023876 
5
M1_conf_0_9
C                  -0.48109213    0.65551808    4.20512082 
H                  -0.03507889    1.44961457    4.81271115 
H                  -1.51588388    0.50284863    4.54110835 
H                  -0.48382657    0.97961130    3.07487497 
H                   0.11104310   -0.28975529    4.22164777 
5
M1_conf_0_10
C                   0.33690301   -0.65031374    4.22795170 
H                  -0.11398338   -1.42942551    4.85179388 
H                   1.36764962   -0.48605642    4.56516008 
H                   0.35582851   -0.99993416    3.10662058 
H                  -0.25523222    0.29495963    4.21142475 
3
M1_conf_0_11
O                   2.83530154   -0.09269013    1.29053833 
H                   2.34089572   -0.03261256    0.54337628 
H                   3.77101311    0.09078030    1.06063479 
3
M1_conf_0_12
O                   2.89455690    0.07797921   -0.99171410 
H                   2.36174443    0.02743660   -0.25962283 
H                   3.83262877    0.00636537   -0.70240428 
10
M1_conf_0_13
C                  -0.83012467   -2.04493204   -0.09194709 
C                  -1.38403643   -2.72901223   -1.16305355 
N                  -1.02846368   -2.82093114    1.04417913 
H                   0.70397951   -1.47785731    0.01947646 
C                  -1.96776746   -3.94202909   -0.67029020 
H                  -1.38022436   -2.40187177   -2.19381589 
C                  -1.71515505   -3.97082281    0.73377509 
H                  -0.63848659   -2.56302791    1.94315879 
H                  -2.48028832   -4.71608883   -1.09014184 
H                  -2.02644175   -4.73512064    1.32221525 
12
M1_conf_0_14
C                  -1.96776746   -3.94202909   -0.67029020 
C                  -1.71515505   -3.97082281    0.73377509 
C                  -2.67578068   -5.01134075   -1.25028711 
C                  -2.14517677   -5.02664905    1.54666574 
C                  -3.10231030   -6.06107568   -0.44518477 
H                  -2.88417152   -5.01739136   -2.31810770 
C                  -2.83875637   -6.06964280    0.94117054 
H                  -1.94187824   -5.03265074    2.61497454 
H                  -3.64763891   -6.89143370   -0.88721389 
H                  -3.18286144   -6.90513906    1.54564079 
H                  -1.54521274   -3.06394317   -1.02699469 
H                  -1.17540808   -3.06699531    0.97775608 
11
M1_conf_0_15
N                  -2.04936424    0.76142091   -0.34783275 
C                  -2.46988261    0.84670500   -1.63161067 
C                  -2.87691373    1.11751533    0.64630278 
C                  -3.77004340    1.27714821   -1.92773243 
C                  -4.17954360    1.54760900    0.41779488 
H                  -2.45384637    1.06769020    1.64250176 
C                  -4.63546361    1.62295591   -0.89659216 
H                  -4.10686316    1.34578475   -2.95475553 
H                  -4.81318245    1.81728706    1.25610336 
H                  -5.64609670    1.95243849   -1.11909750 
H                  -1.75948869    0.58589738   -2.39307401 
11
M1_conf_0_16
N                  -0.25516373    0.12485426   -2.25962837 
C                  -1.48852101    0.48641675   -2.68352125 
C                   0.68715554   -0.19315598   -3.16062519 
C                  -1.79630739    0.51983062   -4.05051179 
C                   0.44630749   -0.18030855   -4.53205865 
H                   1.65803802   -0.44279256   -2.74752300 
C                  -0.82213574    0.17949334   -4.98311496 
H                  -2.78573979    0.80272788   -4.38833710 
H                   1.23965154   -0.44810553   -5.22209901 
H                  -1.05273914    0.19832083   -6.04430018 
H                  -2.19891493    0.74722437   -1.92205791 
10
M1_conf_0_17
B                   0.00000000    0.00000000    2.03650433 
O                   0.35995225   -1.07611410    2.86229005 
O                  -0.48442239    1.05022904    2.82860199 
C                   0.33690301   -0.65031374    4.22795170 
C                  -0.48109213    0.65551808    4.20512082 
H                  -0.11398338   -1.42942551    4.85179388 
H                   1.36764962   -0.48605642    4.56516008 
H                  -0.03507889    1.44961457    4.81271115 
H                  -1.51588388    0.50284863    4.54110835 
H                   0.00000000    0.00000000    0.89745080 
10
M1_conf_0_18
B                   2.07251206    0.00000000    0.13778621 
O                   2.89455690    0.07797921   -0.99171410 
O                   2.83530154   -0.09269013    1.29053833 
C                   4.26039787   -0.02629117   -0.57047643 
C                   4.19770589    0.17444445    0.95579673 
H                   4.86082040    0.73433630   -1.08065901 
H                   4.64761721   -1.01712104   -0.84383590 
H                   4.85428500   -0.50720982    1.50647394 
H                   4.43860810    1.20632168    1.24179213 
H                   0.91331876    0.00000000    0.06071990 
10
M1_conf_0_19
B                   0.52856101    2.05903422    0.12333367 
O                  -0.27575414    3.04867070   -0.44393533 
O                   1.64851100    2.63440607    0.71751004 
C                   0.25558374    4.33721135   -0.11637192 
C                   1.65249316    4.04256971    0.46825101 
H                   0.29095399    4.95935820   -1.01749049 
H                  -0.40522381    4.82396521    0.61276477 
H                   1.84676250    4.57895763    1.40324388 
H                   2.45728374    4.28112052   -0.23973140 
H                   0.23292732    0.90737932    0.05435093 
