30
M1_ref_0
Ir                  0.00000000    0.00000000    0.00000000 
B                   0.00000000    0.00000000    2.02077729 
B                   2.03541364    0.00000000    0.17507411 
B                   0.09967269    1.97703326    0.22833026 
N                  -2.21147258    0.00241098   -0.42491168 
N                  -0.27950106   -0.58236144   -2.19122792 
C                  -2.62410355   -0.35292770   -1.66441425 
C                  -3.11488941    0.42343725    0.47469361 
C                  -1.55620686   -0.75580555   -2.61556821 
C                   0.73816737   -0.89551851   -3.01186614 
C                  -3.97920513   -0.30549193   -2.01489948 
C                  -4.47685180    0.48819505    0.19488915 
H                  -2.70821622    0.72680925    1.43250144 
C                  -1.82719866   -1.27532467   -3.88710207 
C                   0.53481486   -1.40181001   -4.29423632 
H                   1.72830928   -0.72388997   -2.59967988 
C                  -4.91573655    0.11225211   -1.07375388 
H                  -4.30222211   -0.57552334   -3.01354480 
H                  -5.16971363    0.83245114    0.95556577 
C                  -0.77175911   -1.60092493   -4.73495643 
H                  -2.84858898   -1.43483602   -4.21221795 
H                   1.38730890   -1.63791410   -4.92273028 
H                  -5.96955879    0.15296361   -1.33340634 
H                  -0.97151325   -2.00574929   -5.72297117 
H                  -0.30094930    0.85034378    2.75987503 
H                   0.21383113   -0.98046844    2.60934802 
H                   2.74806769   -0.12458655   -0.75052972 
H                   2.67615821    0.10793895    1.13536304 
H                   1.05160863    2.62697840    0.33364967 
H                  -0.85464571    2.64298391    0.21172613 
3
M1_ref_1
O                   1.24498417    2.75900776    0.35504417 
H                   0.50264481    2.25216708    0.27291392 
H                   0.97505408    3.68395478    0.53552237 
3
M1_ref_2
O                  -1.04850521    2.77826461    0.20835318 
H                  -0.30430796    2.25894250    0.22130142 
H                  -0.77554777    3.71956225    0.24593880 
5
M1_ref_3
C                   0.85196357    4.10573883    0.61782203 
H                   1.02983008    4.33299713    1.67723768 
H                   1.45372740    4.79200912    0.01117662 
H                   1.17466885    2.99995142    0.40205776 
H                  -0.23606628    4.13691189    0.36102792 
5
M1_ref_4
C                  -0.65107675    4.14880233    0.26307817 
H                  -1.24977205    4.67824260    1.01310962 
H                  -0.83109729    4.61842861   -0.71429028 
H                  -0.97740128    3.02346751    0.21814403 
H                   0.43695310    4.11762927    0.51987228 
5
M1_ref_5
C                   4.25010370   -0.19731545   -0.49204558 
H                   4.86867064    0.45897521   -1.11482193 
H                   4.62999013   -1.22424925   -0.59071268 
H                   3.13566450   -0.15837897   -0.85867096 
H                   4.20032794    0.13212827    0.57343628 
5
M1_ref_6
C                   4.18134183    0.25778897    0.97984621 
H                   4.48858818    1.30585142    1.09818848 
H                   4.79545487   -0.35929871    1.64578084 
H                   3.05232398    0.15275236    1.26771149 
H                   4.23111759   -0.07165475   -0.08563565 
3
M1_ref_7
O                   0.25726862   -1.17964004    2.72890983 
H                   0.09051868   -0.41505045    2.26993018 
H                   0.28058786   -0.97744242    3.68757586 
3
M1_ref_8
O                  -0.36208391    1.02308196    2.91001478 
H                  -0.12739741    0.35996627    2.33365105 
H                  -0.36286365    0.66933796    3.82606196 
5
M1_ref_9
C                   0.29122164   -0.88523851    4.12473608 
H                  -0.24823340   -1.65948565    4.68277981 
H                   1.33500526   -0.87704402    4.46595464 
H                   0.26334315   -1.12696866    2.97863710 
H                  -0.18251894    0.12332729    4.21091582 
5
M1_ref_10
C                  -0.36321922    0.50802756    4.24378761 
H                  -1.39851255    0.45004027    4.60917573 
H                   0.19247700    1.18504097    4.90229354 
H                  -0.36228703    0.93093358    3.14864008 
H                   0.11052136   -0.50053824    4.15760787 
3
M1_ref_11
O                   2.80631857    0.12986559    1.33043540 
H                   2.30665269    0.04569256    0.58158220 
H                   3.75069692    0.21772452    1.08964759 
3
M1_ref_12
O                   2.89283568   -0.14989497   -0.93855617 
H                   2.33709330   -0.05273980   -0.21675114 
H                   3.82501957   -0.18246378   -0.63188868 
10
M1_ref_13
C                   3.55371700   28.87205264   -8.74085683 
C                   3.89300205   28.39167443   -9.97814931 
N                   2.17934799   29.00533064   -8.65725897 
H                   4.18042964   29.13462413   -7.89982301 
C                   2.67058159   28.21265679  -10.71283899 
H                   4.89613668   28.18844378  -10.32724390 
C                   1.60823974   28.60905203   -9.85055378 
H                   1.67465177   29.33932568   -7.85152320 
H                   2.44298223   27.88506326  -11.64970734 
H                   0.63695598   28.57638917  -10.13637551 
12
M1_ref_14
C                   2.67058159   28.21265679  -10.71283899 
C                   1.60823974   28.60905203   -9.85055378 
C                   2.35616833   27.76010828  -12.00705984 
C                   0.26647632   28.56393048  -10.24539734 
C                   1.02560866   27.71370739  -12.40310926 
H                   3.14590363   27.45102659  -12.68724115 
C                  -0.00932786   28.11172268  -11.53086041 
H                  -0.53185139   28.87038219   -9.57410963 
H                   0.77387633   27.36539337  -13.40121019 
H                  -1.04096026   28.06433292  -11.86896449 
H                   3.55547465   28.34224515  -10.18100742 
H                   2.05713711   28.92053138   -8.91261093 
11
M1_ref_15
N                  -2.21147258    0.00241098   -0.42491168 
C                  -2.62410355   -0.35292770   -1.66441425 
C                  -3.11488941    0.42343725    0.47469361 
C                  -3.97920513   -0.30549193   -2.01489948 
C                  -4.47685180    0.48819505    0.19488915 
H                  -2.70821622    0.72680925    1.43250144 
C                  -4.91573655    0.11225211   -1.07375388 
H                  -4.30222211   -0.57552334   -3.01354480 
H                  -5.16971363    0.83245114    0.95556577 
H                  -5.96955879    0.15296361   -1.33340634 
H                  -1.85106809   -0.64456534   -2.35294129 
11
M1_ref_16
N                  -0.27950106   -0.58236144   -2.19122792 
C                  -1.55620686   -0.75580555   -2.61556821 
C                   0.73816737   -0.89551851   -3.01186614 
C                  -1.82719866   -1.27532467   -3.88710207 
C                   0.53481486   -1.40181001   -4.29423632 
H                   1.72830928   -0.72388997   -2.59967988 
C                  -0.77175911   -1.60092493   -4.73495643 
H                  -2.84858898   -1.43483602   -4.21221795 
H                   1.38730890   -1.63791410   -4.92273028 
H                  -0.97151325   -2.00574929   -5.72297117 
H                  -2.32924232   -0.46416791   -1.92704117 
10
M1_ref_17
B                   0.00000000    0.00000000    2.02077729 
O                  -0.36208391    1.02308196    2.91001478 
O                   0.25726862   -1.17964004    2.72890983 
C                  -0.36321922    0.50802756    4.24378761 
C                   0.29122164   -0.88523851    4.12473608 
H                  -1.39851255    0.45004027    4.60917573 
H                   0.19247700    1.18504097    4.90229354 
H                  -0.24823340   -1.65948565    4.68277981 
H                   1.33500526   -0.87704402    4.46595464 
H                   0.00000000    0.00000000    0.89052018 
10
M1_ref_18
B                   2.03541364    0.00000000    0.17507411 
O                   2.89283568   -0.14989497   -0.93855617 
O                   2.80631857    0.12986559    1.33043540 
C                   4.25010370   -0.19731545   -0.49204558 
C                   4.18134183    0.25778897    0.97984621 
H                   4.86867064    0.45897521   -1.11482193 
H                   4.62999013   -1.22424925   -0.59071268 
H                   4.48858818    1.30585142    1.09818848 
H                   4.79545487   -0.35929871    1.64578084 
H                   0.89697015    0.00000000    0.07715201 
10
M1_ref_19
B                   0.09967269    1.97703326    0.22833026 
O                   1.24498417    2.75900776    0.35504417 
O                  -1.04850521    2.77826461    0.20835318 
C                   0.85196357    4.10573883    0.61782203 
C                  -0.65107675    4.14880233    0.26307817 
H                   1.02983008    4.33299713    1.67723768 
H                   1.45372740    4.79200912    0.01117662 
H                  -1.24977205    4.67824260    1.01310962 
H                  -0.83109729    4.61842861   -0.71429028 
H                   0.04392396    0.87124297    0.10062104 
