6 

C                  -0.54914430    0.15958030   -0.76476450 
H                  -0.93260940    1.30734460   -0.62319090 
H                   0.30411540   -0.14128360   -0.20911410 
H                  -1.17180720   -0.66723570   -0.81436830 
Cl                  0.12441090   -0.04300230    3.03251610 
Cl                  0.11547410   -0.02586390   -2.72325010 

