6 

C                  -0.12299540   -0.10486500    0.47110130 
H                   0.17719590    0.97844860    0.19320220 
H                   0.82317450   -0.73724200    0.40408840 
H                  -0.96605120   -0.65140480    0.42933070 
Cl                  0.02784190    0.02492600    2.65293020 
Cl                  0.01287960    0.02325320   -2.84379830 

