6 

C                  -0.39316740    0.14845630   -0.83598840 
H                  -0.71833540    1.22976550   -0.77582750 
H                   0.39050080   -0.18608500   -0.05811070 
H                  -1.25567110   -0.71085500   -0.81012660 
Cl                  0.10435380   -0.03933620    2.92846090 
Cl                  0.07575400   -0.02093950   -2.59469200 

