6 

C                  -0.38909950    0.14727230   -0.78127370 
H                  -0.77824550    1.12414320   -0.60197360 
H                   0.41961770   -0.14809540   -0.26251540 
H                  -1.12142670   -0.46874250   -0.86527540 
Cl                  0.09971480   -0.03848470    2.90153530 
Cl                  0.07602670   -0.02641990   -2.58404480 

