6 

C                  -0.36306970    0.11472030   -0.49083540 
H                  -0.60157980    1.19951440   -0.63654640 
H                   0.50792960   -0.14567120   -0.08198010 
H                  -1.17950390   -0.37132430   -0.38253510 
Cl                  0.07797160   -0.03380830    2.77192620 
Cl                  0.08294120   -0.02502380   -2.57208240 

