6 

C                  -0.08348900   -0.08847020    0.46596240 
H                   0.11116640    0.82354570    0.14178290 
H                   0.67109630   -0.68867800    0.37413450 
H                  -0.96403220   -0.70004920    0.49869320 
Cl                  0.02325130    0.02350000    2.63968650 
Cl                  0.01015950    0.02349030   -2.82846310 

