6 

C                   0.09699490   -0.08508240    0.53693930 
H                   0.18496070    0.95749920   -0.12989170 
H                   0.99646360   -0.73756240    0.18459350 
H                  -0.79842570   -0.60970570    0.29193220 
Cl                 -0.01996300    0.01737060    2.40083780 
Cl                 -0.02453020    0.02315400   -2.59495140 

