6 

C                  -0.12735320   -0.10722800    0.47569740 
H                   0.16760090    1.00104690    0.21222650 
H                   0.86342490   -0.75005200    0.40563160 
H                  -1.02561570   -0.64769700    0.39125190 
Cl                  0.02926600    0.02545380    2.65673510 
Cl                  0.01377900    0.02315700   -2.84867000 

