6 

C                  -0.40350350    0.14354050   -0.59965550 
H                  -0.50072910    1.23259520   -0.52743660 
H                   0.54811340   -0.21034700   -0.02886320 
H                  -1.24374490   -0.63199490   -0.15917640 
Cl                  0.08478540   -0.03525650    2.81195710 
Cl                  0.08777150   -0.02502580   -2.58592530 

