6 

C                  -0.11315620   -0.12073480    0.51125330 
H                  -0.06137030    0.84832590    0.31817600 
H                   0.69688050   -0.65528440    0.36477770 
H                  -1.14607460   -0.49047840    0.20553430 
Cl                  0.03484660    0.02785670    2.67073220 
Cl                  0.01817280    0.02257780   -2.87136410 

