6 

C                  -0.38915860    0.15601080   -0.73324530 
H                  -0.75489300    1.16863470   -0.42314600 
H                   0.60065280   -0.14466150   -0.23100510 
H                  -1.36755450   -0.57634850   -0.63642390 
Cl                  0.09496930   -0.03756850    2.87317270 
Cl                  0.08201110   -0.02862500   -2.58479190 

