6 

C                   0.08180640   -0.08428930    0.57246200 
H                   0.08485770    0.78609210   -0.02340510 
H                   0.98389800   -0.70266750    0.28483130 
H                  -0.82612960   -0.48868830    0.20967480 
Cl                 -0.01375200    0.01737130    2.40620100 
Cl                 -0.02150360    0.02334360   -2.61607030 

