6 

C                  -0.02567210    0.08572580   -0.38994960 
H                  -0.24754390    1.00110730    0.02008340 
H                   0.95315770   -0.40218470   -0.04349330 
H                  -1.11021520   -0.47161290   -0.27475790 
Cl                  0.01143750   -0.01512480    2.43880940 
Cl                  0.00882830   -0.01786630   -2.29642490 

