6 

C                   0.16672840   -0.12756880    0.20297840 
H                   0.21424840    1.06875000    0.03138420 
H                   1.18277810   -0.63116270    0.16976190 
H                  -0.67707640   -0.52131380   -0.29884250 
Cl                 -0.03728690    0.02542730    2.39629040 
Cl                 -0.04072900    0.02079080   -2.46308440 

