6 

C                   0.04205380    0.01129050   -0.18399990 
H                   0.09255860    1.11916400   -0.13086060 
H                   0.96957670   -0.40698400   -0.00176500 
H                  -0.66509280   -0.49480550    0.20968040 
Cl                 -0.01421230   -0.00690500    2.35737020 
Cl                 -0.01178010   -0.00318250   -2.29643580 

