6 

C                  -0.53403530    0.16868930   -0.77586800 
H                  -0.82805580    1.10227930   -0.72603860 
H                   0.44087310   -0.13882730   -0.38065920 
H                  -1.28832450   -0.69530460   -0.74569730 
Cl                  0.12049550   -0.04236250    3.01277540 
Cl                  0.11060040   -0.02298000   -2.69373220 

