6 

C                  -0.38728280    0.14295990   -0.77140100 
H                  -0.80390860    1.17003580   -0.55177180 
H                   0.44268610   -0.13953130   -0.28367980 
H                  -1.14098510   -0.45154270   -0.83898300 
Cl                  0.09877930   -0.03831010    2.89597640 
Cl                  0.07698120   -0.02718150   -2.58346240 

