6 

C                   0.18553380   -0.07867740    0.13423050 
H                   0.29645460    0.83454150   -0.04146850 
H                   1.07155460   -0.65321050    0.08559850 
H                  -0.60303720   -0.69453530   -0.20010780 
Cl                 -0.04233280    0.02189910    2.38661470 
Cl                 -0.04341050    0.01990220   -2.42816300 

