6 

C                  -0.22466450   -0.06050160    0.83543550 
H                   0.04519240    0.95176790    0.47097290 
H                   0.51884040   -0.63595840    0.37632080 
H                  -1.08010890   -0.50206480    0.55595870 
Cl                  0.04953870    0.01118260    2.63813710 
Cl                  0.04179080    0.01574720   -2.96468630 

