6 

C                  -0.24192410   -0.06432370    0.73226180 
H                  -0.23096730    1.03930280    0.52498630 
H                   0.51018310   -0.69357860    0.37483290 
H                  -1.19968750   -0.32217660    0.66600380 
Cl                  0.06067700    0.00910010    2.68453660 
Cl                  0.04818690    0.01323730   -2.98030100 

