6 

C                   0.16290890   -0.12499750    0.22364230 
H                   0.17203550    0.92582530    0.09810050 
H                   1.16638970   -0.61611510    0.20510340 
H                  -0.66936720   -0.44703550   -0.21492690 
Cl                 -0.03579350    0.02578720    2.39717390 
Cl                 -0.03945570    0.02109830   -2.47641010 

