6 

C                  -0.00936730    0.06599570   -0.34523180 
H                  -0.18647320    1.12251020    0.02854960 
H                   0.90347320   -0.37763410   -0.16552060 
H                  -0.99953670   -0.48152070   -0.26284590 
Cl                  0.00619770   -0.01351850    2.41980540 
Cl                  0.00497230   -0.01662860   -2.28982400 

