6 

C                  -0.17158770   -0.04274790    0.84585610 
H                  -0.19815040    0.86990060    0.33475430 
H                   0.55677790   -0.74976120    0.46299200 
H                  -1.26373940   -0.47244830    0.48592180 
Cl                  0.04515830    0.00895580    2.63002770 
Cl                  0.03918820    0.01661850   -2.95673080 

