6 

C                  -0.39756460    0.14593750   -0.58281940 
H                  -0.50202130    1.18455280   -0.55827600 
H                   0.55566300   -0.21100070   -0.02513260 
H                  -1.26717520   -0.62920570   -0.16084890 
Cl                  0.08369000   -0.03501950    2.80546210 
Cl                  0.08732740   -0.02476540   -2.58437070 

