6 

C                  -0.30956540    0.00915090    0.63870850 
H                  -0.02969650    0.91209000    0.25684880 
H                   0.41933110   -0.68251140    0.29731930 
H                  -1.38471410   -0.58924150    0.68649500 
Cl                  0.07733440   -0.00028800    2.73588230 
Cl                  0.05682050    0.00870530   -2.99002760 

