6
Conf_0 frag_0
C                   0.00000000    0.00000000    0.00000000 
C                   1.39510000    0.00000000    0.00000000 
H                  -0.50786000    0.00000000   -0.86979000 
H                  -0.53960000    0.00049000    0.94257000 
H                   1.88811000    0.01130000   -0.87523000 
H                   1.94521000   -0.00425000    0.93763000 
6
Conf_0 frag_1
C                   0.00000000    0.00000000    0.00000000 
C                   1.39180000    0.00000000    0.00000000 
C                  -0.70390000    0.00000000   -1.20555000 
H                  -0.54190000   -0.00049000    0.94125000 
C                   2.09657000    0.00189000   -1.20608000 
H                   1.93365000    0.00033000    0.94117000 
4
Conf_0 frag_2
C                   0.00000000    0.00000000    0.00000000 
H                   1.08620000    0.00000000    0.00000000 
O                  -0.61144000    0.00000000   -1.06807000 
H                  -0.50253000    0.00046000    0.87288000 
8
Conf_0 frag_3
C                   0.00000000    0.00000000    0.00000000 
C                   1.39600000    0.00000000    0.00000000 
C                   2.09632000    0.00000000    1.20231000 
H                  -0.49301000    0.01130000    0.87523000 
H                  -0.55011000   -0.00425000   -0.93763000 
H                   1.93560000    0.00049000   -0.94257000 
O                   1.49028000   -0.00167000    2.27436000 
H                   3.18231000   -0.00033000    1.19681000 
6
Conf_0 frag_4
C                   0.00000000    0.00000000    0.00000000 
C                   1.39600000    0.00000000    0.00000000 
H                   1.93626000    0.00000000    0.94220000 
H                  -0.49301000   -0.01176000   -0.87523000 
H                  -0.55011000    0.00475000    0.93763000 
H                   1.90386000   -0.00046000   -0.86979000 
6
Conf_0 frag_5
C                   0.00000000    0.00000000    0.00000000 
C                   1.39140000    0.00000000    0.00000000 
H                   1.93363000    0.00000000    0.94106000 
O                  -0.62133000   -0.00111000   -1.06327000 
H                  -0.54185000   -0.00099000    0.94117000 
O                   2.01195000    0.00056000   -1.06280000 
6
Conf_0 frag_6
C                   0.00000000    0.00000000    0.00000000 
C                   1.38850000    0.00000000    0.00000000 
C                  -0.68509000    0.00000000   -1.21633000 
H                  -0.54700000    0.00787000    0.93942000 
C                   2.09726000   -0.02514000   -1.21021000 
H                   2.04708000   -0.03339000    0.88518000 
4
Conf_0 frag_7
C                   0.00000000    0.00000000    0.00000000 
H                   1.08730000    0.00000000    0.00000000 
O                  -0.62278000    0.00000000   -1.06150000 
H                  -0.50549000   -0.00727000    0.86813000 
8
Conf_0 frag_8
C                   0.00000000    0.00000000    0.00000000 
C                   1.39600000    0.00000000    0.00000000 
C                   2.08212000    0.00000000    1.20633000 
H                  -0.50786000    0.01123000    0.86972000 
H                  -0.53960000   -0.01267000   -0.94249000 
H                   1.94611000   -0.00786000   -0.93761000 
O                   1.46360000    0.02216000    2.27701000 
H                   3.17715000    0.03339000    1.34116000 
6
Conf_0 frag_9
C                   0.00000000    0.00000000    0.00000000 
C                   1.39600000    0.00000000    0.00000000 
H                   1.94513000    0.00000000    0.93821000 
H                  -0.50786000   -0.00395000   -0.86978000 
H                  -0.53960000    0.00477000    0.94256000 
H                   1.88901000    0.00733000   -0.87528000 
6
Conf_0 frag_10
C                   0.00000000    0.00000000    0.00000000 
C                   1.38780000    0.00000000    0.00000000 
H                   1.93184000    0.00000000    0.94117000 
O                  -0.62488000    0.01341000   -1.06713000 
H                  -0.65858000    0.04080000    0.88487000 
O                   1.99177000   -0.00898000   -1.07227000 
6
Conf_0 frag_11
C                   0.00000000    0.00000000    0.00000000 
C                   1.40140000    0.00000000    0.00000000 
H                  -0.50761000    0.00000000   -0.86692000 
H                  -0.43022000   -0.05178000    1.01518000 
H                   1.90537000    0.01256000   -0.86722000 
H                   1.83887000   -0.02654000    1.00674000 
7
Conf_0 frag_12
C                   0.00000000    0.00000000    0.00000000 
C                   1.52000000    0.00000000    0.00000000 
H                  -0.59939000    0.00000000   -0.80620000 
O                  -0.48202000    0.06238000    1.13718000 
H                   1.73098000    0.96453000    0.49996000 
H                   1.93307000   -0.06754000   -1.00893000 
H                   1.85916000   -0.80140000    0.67269000 
8
Conf_0 frag_13
C                   0.00000000    0.00000000    0.00000000 
C                   1.38780000    0.00000000    0.00000000 
C                   2.09233000    0.00000000    1.21293000 
O                  -0.60397000   -0.02227000    1.07208000 
H                  -0.54700000    0.01181000   -0.93938000 
H                   2.04638000    0.05176000   -0.88429000 
H                   1.59556000   -0.01256000    2.08430000 
H                   3.18259000    0.02654000    1.08558000 
9
Conf_0 frag_14
C                   0.00000000    0.00000000    0.00000000 
C                   1.38780000    0.00000000    0.00000000 
C                   2.28964000    0.00000000    1.22951000 
O                  -0.60397000   -0.04042000   -1.07155000 
H                  -0.54700000    0.04327000    0.93846000 
O                   2.01268000   -0.06236000   -1.06539000 
H                   2.81757000   -0.96453000    1.10393000 
H                   1.72041000    0.06754000    2.15931000 
H                   3.03266000    0.80140000    1.10512000 
9
Conf_0 frag_15
C                   0.00000000    0.00000000    0.00000000 
C                   1.40270000    0.00000000    0.00000000 
C                   2.01266000    0.00000000    1.39748000 
H                  -0.50397000    0.03163000   -0.86673000 
H                  -0.43747000   -0.02478000    1.00678000 
H                   1.91031000    0.04416000   -0.86580000 
H                   1.59111000    0.93569000    1.81168000 
H                   3.10459000   -0.01218000    1.37159000 
H                   1.57297000   -0.83704000    1.95945000 
6
Conf_0 frag_16
C                   0.00000000    0.00000000    0.00000000 
C                   1.38770000    0.00000000    0.00000000 
C                  -0.70474000    0.00000000   -1.21281000 
H                  -0.65096000   -0.01204000    0.88415000 
C                   2.07578000    0.00021000   -1.21568000 
H                   1.93420000   -0.00148000    0.93974000 
7
Conf_0 frag_17
C                   0.00000000    0.00000000    0.00000000 
C                   1.50350000    0.00000000    0.00000000 
O                  -0.49274000    0.00000000   -1.13430000 
H                  -0.59469000    0.01029000    0.80774000 
H                   1.85048000    0.87612000   -0.58055000 
H                   1.93127000   -0.05592000    1.00328000 
H                   1.84598000   -0.81777000   -0.66104000 
8
Conf_0 frag_18
C                   0.00000000    0.00000000    0.00000000 
C                   1.40270000    0.00000000    0.00000000 
C                   2.09890000    0.00000000    1.19811000 
H                  -0.50761000    0.01256000    0.86683000 
H                  -0.43022000    0.03707000   -1.01583000 
H                   1.84017000    0.01195000   -1.00701000 
O                   1.47702000   -0.00019000    2.26106000 
H                   3.18600000    0.00148000    1.19849000 
9
Conf_0 frag_19
C                   0.00000000    0.00000000    0.00000000 
C                   1.40270000    0.00000000    0.00000000 
C                   2.03436000    0.00000000    1.37902000 
H                  -0.50761000   -0.02284000   -0.86662000 
H                  -0.43022000   -0.02501000    1.01620000 
H                   1.90667000   -0.01029000   -0.86725000 
H                   1.65104000   -0.87612000    1.93624000 
H                   3.12464000    0.05592000    1.35013000 
H                   1.57598000    0.81777000    1.96567000 
9
Conf_0 frag_20
C                   0.00000000    0.00000000    0.00000000 
C                   1.38570000    0.00000000    0.00000000 
C                   2.26068000    0.00000000    1.23899000 
O                  -0.60661000    0.01440000   -1.07164000 
H                  -0.54650000   -0.01115000    0.93968000 
O                   2.00704000    0.01456000   -1.06918000 
H                   2.92590000    0.88344000    1.19398000 
H                   1.68857000   -0.06869000    2.16670000 
H                   3.00667000   -0.80928000    1.13143000 
6
Conf_0 frag_21
C                   0.00000000    0.00000000    0.00000000 
C                   1.39540000    0.00000000    0.00000000 
H                  -0.49410000    0.00000000   -0.87297000 
H                  -0.54847000   -0.00147000    0.93860000 
H                   1.90356000   -0.00698000   -0.86958000 
H                   1.93446000    0.00576000    0.94275000 
4
Conf_0 frag_22
C                   0.00000000    0.00000000    0.00000000 
H                   1.08720000    0.00000000    0.00000000 
H                  -0.50428000    0.00000000   -0.86713000 
O                  -0.62133000    0.00167000    1.06327000 
8
Conf_0 frag_23
C                   0.00000000    0.00000000    0.00000000 
C                   1.38570000    0.00000000    0.00000000 
C                   2.07654000    0.00000000    1.21412000 
O                  -0.62134000    0.00019000    1.06928000 
H                  -0.65096000    0.01188000   -0.88415000 
H                   1.93220000    0.00148000   -0.93974000 
H                   1.57205000    0.00698000    2.08583000 
H                   3.16252000   -0.00576000    1.21640000 
6
Conf_0 frag_24
C                   0.00000000    0.00000000    0.00000000 
C                   1.38570000    0.00000000    0.00000000 
H                   1.93089000    0.00000000    0.94051000 
O                  -0.62134000   -0.00168000   -1.06928000 
H                  -0.65096000   -0.01049000    0.88417000 
O                   1.99231000   -0.00168000   -1.07174000 
6
Conf_0 frag_25
C                   0.00000000    0.00000000    0.00000000 
C                   1.39690000    0.00000000    0.00000000 
H                   1.94472000    0.00000000    0.93898000 
H                  -0.50816000    0.00835000   -0.86957000 
H                  -0.53906000   -0.00724000    0.94274000 
H                   1.89100000    0.00137000   -0.87297000 
4
Conf_0 frag_26
C                   0.00000000    0.00000000    0.00000000 
H                   1.08600000    0.00000000    0.00000000 
H                  -0.50253000    0.00000000   -0.87288000 
O                  -0.61128000   -0.00224000    1.06908000 
8
Conf_0 frag_27
C                   0.00000000    0.00000000    0.00000000 
C                   1.39140000    0.00000000    0.00000000 
C                   2.09407000    0.00000000    1.20731000 
O                  -0.62055000    0.00167000    1.06280000 
H                  -0.54190000   -0.00099000   -0.94125000 
H                   1.93325000   -0.00197000   -0.94116000 
H                   1.58815000    0.00701000    2.07345000 
H                   3.18113000   -0.00901000    1.20922000 
6
Conf_0 frag_28
C                   0.00000000    0.00000000    0.00000000 
C                   1.39140000    0.00000000    0.00000000 
H                   1.93424000    0.00000000    0.94060000 
O                  -0.62055000    0.00037000   -1.06280000 
H                  -0.54190000   -0.00099000    0.94125000 
O                   2.01273000    0.00223000   -1.06327000 
6
Conf_0 frag_29
C                   0.00000000    0.00000000    0.00000000 
C                   1.39690000    0.00000000    0.00000000 
H                   1.93661000    0.00000000    0.94239000 
H                  -0.49410000    0.00533000   -0.87295000 
H                  -0.54847000   -0.00721000    0.93857000 
H                   1.90506000   -0.00182000   -0.86961000 
7
Conf_0 frag_30
C                   0.00000000    0.00000000    0.00000000 
C                   1.52320000    0.00000000    0.00000000 
H                  -0.21043000    0.00000000   -1.08356000 
H                  -0.43590000   -0.86465000    0.50546000 
H                  -0.33001000    0.96596000    0.40963000 
H                   1.90562000    0.94365000   -0.35376000 
H                   2.00052000   -0.92719000   -0.31853000 
5
Conf_0 frag_31
C                   0.00000000    0.00000000    0.00000000 
H                   1.09230000    0.00000000    0.00000000 
H                  -0.41742000    0.00000000   -1.02183000 
H                  -0.44165000    0.92903000    0.40820000 
H                  -0.44351000   -0.84452000    0.54760000 
7
Conf_0 frag_32
C                   0.00000000    0.00000000    0.00000000 
C                   1.51400000    0.00000000    0.00000000 
H                  -0.34036000    0.00000000   -1.05001000 
H                  -0.33205000   -1.00301000    0.32939000 
H                  -0.44044000    0.81619000    0.57704000 
O                   2.00361000   -0.85026000   -0.65266000 
H                   2.07677000    0.72168000    0.58190000 
9
Conf_0 frag_33
C                   0.00000000    0.00000000    0.00000000 
C                   1.52480000    0.00000000    0.00000000 
C                   1.93798000    0.00000000    1.47191000 
H                  -0.59939000    0.71575000   -0.37101000 
O                  -0.48202000   -0.98090000    0.57872000 
H                   1.93787000    0.86466000   -0.52427000 
H                   1.86396000   -0.96603000   -0.40192000 
H                   1.70074000   -0.94365000    1.93570000 
H                   1.76030000    0.92719000    2.01755000 
7
Conf_0 frag_34
C                   0.00000000    0.00000000    0.00000000 
C                   1.52480000    0.00000000    0.00000000 
H                   1.93699000    0.00000000    1.01154000 
H                  -0.59939000   -0.05385000    0.80440000 
O                  -0.48202000    0.01372000   -1.13881000 
H                   1.73578000   -0.92898000   -0.56327000 
H                   1.86396000    0.84454000   -0.61766000 
9
Conf_0 frag_35
C                   0.00000000    0.00000000    0.00000000 
C                   1.52480000    0.00000000    0.00000000 
C                   2.02602000    0.00000000    1.43446000 
H                  -0.59939000   -0.61749000   -0.51832000 
O                  -0.48202000    0.91111000    0.68334000 
H                   1.73578000    1.00305000   -0.41732000 
H                   1.93787000   -0.81619000   -0.59693000 
O                   1.57138000    0.85026000    2.11195000 
H                   2.76098000   -0.72168000    1.77379000 
7
Conf_0 frag_36
C                   0.00000000    0.00000000    0.00000000 
C                   1.52880000    0.00000000    0.00000000 
H                   1.97116000    0.00000000    0.99872000 
H                  -0.38242000   -0.17084000   -0.99320000 
H                  -0.47732000    0.74292000    0.63969000 
H                   1.73923000    0.93544000   -0.54685000 
H                   1.85881000   -0.84113000   -0.62719000 
9
Conf_0 frag_37
C                   0.00000000    0.00000000    0.00000000 
C                   1.52880000    0.00000000    0.00000000 
C                   1.81066000    0.00000000    1.49313000 
H                  -0.38242000   -0.69409000    0.73066000 
H                  -0.47732000    0.06873000   -0.97797000 
H                   1.73923000   -0.99757000   -0.42303000 
H                   1.96470000    0.80292000   -0.59869000 
O                   1.30778000   -0.88537000    2.08632000 
H                   2.41040000    0.77802000    1.95263000 
7
Conf_0 frag_38
H                   0.00000000    0.00000000    0.00000000 
C                   1.09230000    0.00000000    0.00000000 
C                   1.71663000    0.00000000    1.38531000 
H                   1.50972000    0.85737000   -0.55593000 
H                   1.53395000   -0.84804000   -0.55727000 
O                   2.89426000    0.04208000    1.39162000 
H                   1.10436000   -0.05853000    2.27853000 
7
Conf_0 frag_39
C                   0.00000000    0.00000000    0.00000000 
C                   1.51090000    0.00000000    0.00000000 
H                  -0.34422000    0.00000000   -1.04265000 
H                  -0.43635000    0.80550000    0.59452000 
H                  -0.19318000   -1.00278000    0.42442000 
H                   1.88768000   -0.70911000   -0.71908000 
H                   1.98033000    0.06477000    0.98293000 
5
Conf_0 frag_40
C                   0.00000000    0.00000000    0.00000000 
H                   1.09000000    0.00000000    0.00000000 
H                  -0.43008000    0.00000000   -1.01026000 
H                  -0.44222000   -0.84244000    0.56546000 
H                  -0.43122000    0.85330000    0.55583000 
7
Conf_0 frag_41
C                   0.00000000    0.00000000    0.00000000 
C                   1.50810000    0.00000000    0.00000000 
H                  -0.34003000    0.00000000   -1.04402000 
H                  -0.19334000    1.00226000    0.42791000 
H                  -0.42584000   -0.81534000    0.58869000 
O                   1.99677000    0.85874000   -0.64218000 
H                   2.06788000   -0.70343000    0.60804000 
9
Conf_0 frag_42
C                   0.00000000    0.00000000    0.00000000 
C                   1.51680000    0.00000000    0.00000000 
C                   2.11496000    0.00000000    1.40714000 
O                  -0.49274000    0.94555000    0.62656000 
H                  -0.59469000   -0.67901000   -0.43759000 
H                   1.94457000   -0.80544000   -0.60080000 
H                   1.85928000    1.00276000   -0.31655000 
H                   1.60060000    0.70911000    2.03521000 
H                   3.20321000   -0.06477000    1.45462000 
7
Conf_0 frag_43
C                   0.00000000    0.00000000    0.00000000 
C                   1.51680000    0.00000000    0.00000000 
H                   1.96917000    0.00000000    0.99401000 
O                  -0.49274000   -0.06312000   -1.13254000 
H                  -0.59469000    0.05522000    0.80591000 
H                   1.86378000    0.84245000   -0.62840000 
H                   1.85928000   -0.85329000   -0.61451000 
9
Conf_0 frag_44
C                   0.00000000    0.00000000    0.00000000 
C                   1.51680000    0.00000000    0.00000000 
C                   2.10048000    0.00000000    1.41191000 
O                  -0.49274000   -0.88214000    0.71307000 
H                  -0.59469000    0.62170000   -0.51578000 
H                   1.86378000   -1.00225000   -0.31639000 
H                   1.94457000    0.81540000   -0.58722000 
O                   1.69370000   -0.85874000    2.10886000 
H                   2.87625000    0.70343000    1.69694000 
7
Conf_0 frag_45
C                   0.00000000    0.00000000    0.00000000 
C                   1.52900000    0.00000000    0.00000000 
H                   1.98985000    0.00000000    0.99010000 
H                  -0.37678000   -0.15746000   -0.99755000 
H                  -0.46943000    0.75239000    0.63582000 
H                   1.87322000   -0.83890000   -0.61917000 
H                   1.72218000    0.93707000   -0.55462000 
9
Conf_0 frag_46
C                   0.00000000    0.00000000    0.00000000 
C                   1.52900000    0.00000000    0.00000000 
C                   1.37434000    0.00000000    1.51995000 
H                  -0.37678000    0.93866000    0.37259000 
H                  -0.46943000   -0.93044000    0.32347000 
H                   1.87322000    0.96019000   -0.40639000 
H                   1.96535000   -0.86155000   -0.50992000 
O                   0.79003000    0.92779000    1.95169000 
H                   1.72376000   -0.83541000    2.11818000 
7
Conf_0 frag_47
H                   0.00000000    0.00000000    0.00000000 
C                   1.09210000    0.00000000    0.00000000 
C                   1.71911000    0.00000000    1.39321000 
H                   1.52218000   -0.84651000   -0.55141000 
H                   1.53432000    0.93361000   -0.39726000 
O                   2.89736000   -0.01797000    1.39882000 
H                   1.10421000    0.08136000    2.28380000 
6
Conf_0 frag_48
C                   0.00000000    0.00000000    0.00000000 
C                   1.47950000    0.00000000    0.00000000 
H                  -0.38689000    0.00000000   -1.03698000 
H                  -0.53435000   -0.64411000    0.70022000 
H                   1.87214000   -0.30787000   -0.98785000 
H                   2.01743000    0.80801000    0.49670000 
4
Conf_0 frag_49
C                   0.00000000    0.00000000    0.00000000 
H                   1.08410000    0.00000000    0.00000000 
H                  -0.47614000    0.00000000   -0.99915000 
H                  -0.52783000    0.66036000    0.66871000 
9
Conf_0 frag_50
C                   0.00000000    0.00000000    0.00000000 
C                   1.52900000    0.00000000    0.00000000 
C                   2.10964000    0.00000000    1.37123000 
H                  -0.34422000   -0.73210000    0.74239000 
H                  -0.43635000   -0.15610000   -0.98890000 
H                  -0.19318000    1.01208000    0.40173000 
H                   1.99843000    0.64405000   -0.74535000 
H                   1.35309000    0.30787000    2.11798000 
H                   2.77678000   -0.80801000    1.67290000 
7
Conf_0 frag_51
C                   0.00000000    0.00000000    0.00000000 
C                   1.52900000    0.00000000    0.00000000 
H                   2.07691000    0.00000000    0.94367000 
H                  -0.34422000    0.06856000   -1.04039000 
H                  -0.43635000    0.76467000    0.64619000 
H                  -0.19318000   -1.02852000    0.35756000 
H                   1.90578000   -0.66029000   -0.76415000 
6
Conf_0 frag_52
C                   0.00000000    0.00000000    0.00000000 
C                   1.48910000    0.00000000    0.00000000 
H                   2.10229000    0.00000000    0.90262000 
H                  -0.39264000    0.89527000   -0.51876000 
H                  -0.53793000   -0.93095000   -0.18146000 
H                   1.87599000    0.70204000   -0.76319000 
4
Conf_0 frag_53
C                   0.00000000    0.00000000    0.00000000 
H                   1.08690000    0.00000000    0.00000000 
H                  -0.48445000    0.00000000   -0.99503000 
H                  -0.53177000    0.64123000    0.68404000 
9
Conf_0 frag_54
C                   0.00000000    0.00000000    0.00000000 
C                   1.52880000    0.00000000    0.00000000 
C                   2.03273000    0.00000000    1.40124000 
H                  -0.21043000    1.01461000    0.38036000 
H                  -0.43590000   -0.16978000   -0.98706000 
H                  -0.33001000   -0.72264000    0.76070000 
H                   2.00612000    0.62373000   -0.75638000 
H                   1.23205000    0.30854000    2.10033000 
H                   2.66241000   -0.82320000    1.74264000 
7
Conf_0 frag_55
C                   0.00000000    0.00000000    0.00000000 
C                   1.52880000    0.00000000    0.00000000 
H                   2.08550000    0.00000000    0.93758000 
H                  -0.21043000   -1.02477000    0.35206000 
H                  -0.43590000    0.75897000    0.65351000 
H                  -0.33001000    0.07356000   -1.04664000 
H                   1.91122000   -0.64116000   -0.77752000 
6
Conf_0 frag_56
C                   0.00000000    0.00000000    0.00000000 
C                   1.48910000    0.00000000    0.00000000 
H                   2.07288000    0.00000000    0.92096000 
H                  -0.38689000    0.88341000   -0.54305000 
H                  -0.53435000   -0.93384000   -0.18203000 
H                   1.88174000    0.68046000   -0.77948000 
6
Conf_0 frag_57
C                   0.00000000    0.00000000    0.00000000 
C                   1.37400000    0.00000000    0.00000000 
H                  -0.45861000    0.00000000   -1.00633000 
H                  -0.61191000    0.06580000    0.89393000 
H                   1.83099000   -0.01449000   -1.00036000 
H                   1.98311000    0.03507000    0.89660000 
4
Conf_0 frag_58
C                   0.00000000    0.00000000    0.00000000 
H                   1.08510000    0.00000000    0.00000000 
H                  -0.57041000    0.00000000   -0.94744000 
O                  -0.66440000   -0.07585000    0.97028000 
9
Conf_0 frag_59
C                   0.00000000    0.00000000    0.00000000 
C                   1.52780000    0.00000000    0.00000000 
C                   2.13361000    0.00000000    1.19154000 
H                  -0.34003000    0.83609000    0.62525000 
H                  -0.19334000   -0.94292000    0.54637000 
H                  -0.42584000    0.01685000   -1.00551000 
H                   2.08758000   -0.06567000   -0.92747000 
H                   1.44900000    0.01449000    2.05228000 
H                   3.20890000   -0.03507000    1.32815000 
7
Conf_0 frag_60
C                   0.00000000    0.00000000    0.00000000 
C                   1.52780000    0.00000000    0.00000000 
H                   2.06124000    0.00000000    0.94516000 
H                  -0.34003000   -0.78984000   -0.68274000 
H                  -0.19334000    0.97916000   -0.47841000 
H                  -0.42584000   -0.08800000    1.00180000 
O                   2.01647000    0.07573000   -1.06962000 
6
Conf_0 frag_61
C                   0.00000000    0.00000000    0.00000000 
C                   1.33670000    0.00000000    0.00000000 
H                   1.93635000    0.00000000    0.90460000 
H                  -0.45699000   -0.05881000   -0.99874000 
H                  -0.60911000    0.03085000    0.89676000 
H                   1.79531000   -0.07388000   -1.00361000 
4
Conf_0 frag_62
C                   0.00000000    0.00000000    0.00000000 
H                   1.08280000    0.00000000    0.00000000 
H                  -0.57076000    0.00000000   -0.94022000 
O                  -0.66185000    0.02552000    0.97464000 
9
Conf_0 frag_63
C                   0.00000000    0.00000000    0.00000000 
C                   1.51950000    0.00000000    0.00000000 
C                   2.01547000    0.00000000    1.24128000 
H                  -0.34036000   -0.83292000    0.63935000 
H                  -0.33205000    0.87202000    0.59507000 
H                  -0.44044000   -0.03924000   -0.99879000 
H                   2.08227000    0.02200000   -0.92679000 
H                   1.25125000    0.01458000    2.04050000 
H                   3.07344000    0.05269000    1.47750000 
7
Conf_0 frag_64
C                   0.00000000    0.00000000    0.00000000 
C                   1.51950000    0.00000000    0.00000000 
H                   2.10092000    0.00000000    0.91547000 
H                  -0.34036000    0.81740000   -0.65908000 
H                  -0.33205000   -0.88600000   -0.57405000 
H                  -0.44044000    0.06311000    0.99757000 
O                   2.00911000   -0.02544000   -1.07157000 
6
Conf_0 frag_65
C                   0.00000000    0.00000000    0.00000000 
C                   1.33670000    0.00000000    0.00000000 
H                   1.93953000    0.00000000    0.90152000 
H                  -0.45861000    0.03933000   -1.00556000 
H                  -0.61191000    0.03081000    0.89582000 
H                   1.79369000    0.02462000   -1.00017000 
