5
M1_ref_0
C                  -4.32678038    7.78125341    9.01092422 
H                  -4.64054049    8.64408212    8.39277388 
H                  -3.60956935    8.14597370    9.75361331 
H                  -5.21366339    7.36183126    9.53738695 
H                  -3.85043587    6.96686120    8.38858750 
5
M1_ref_1
C                  -5.55194982    7.20184981    9.73819720 
H                  -6.10712374    7.99980126   10.23829060 
H                  -5.18339619    6.52555975   10.52569111 
H                  -4.66506681    7.62127196    9.21173447 
H                  -6.27525911    6.60803743    9.07128465 
4
M1_ref_2
N                  -6.47217777    6.44637390    8.88971982 
H                  -5.82784428    6.97534982    9.48381435 
H                  -7.27177696    6.95027003    8.50142381 
H                  -5.99370634    5.81045695    8.24184913 
5
M1_ref_3
C                  -7.61415400    7.16603120    8.33516097 
H                  -8.55699259    6.74226859    8.71377754 
H                  -7.64964267    7.11420857    7.24047915 
H                  -7.59542798    8.22629795    8.60242124 
H                  -6.71654812    6.60037265    8.77105033 
5
M1_ref_4
C                  -5.78883166    5.53816633    7.96444009 
H                  -6.53114201    5.14661666    7.25862392 
H                  -5.38506755    4.69329252    8.54331214 
H                  -6.32594922    6.25202747    8.69172014 
H                  -4.93320151    6.00867796    7.43294803 
5
M1_ref_5
C                  -4.60683595    6.18814662    7.23021943 
H                  -4.05371437    5.45666919    6.63178491 
H                  -4.98163743    6.96472930    6.53643768 
H                  -5.46246610    5.71763499    7.76171149 
H                  -3.91036468    6.62595387    8.00753626 
4
M1_ref_6
N                  -3.72075259    6.74514551    8.21915830 
H                  -4.14508658    7.47061686    8.77354409 
H                  -4.34117841    6.35514101    7.52671418 
H                  -2.72616396    6.59669798    8.15548196 
5
M1_ref_7
C                  -2.30029521    6.53313485    8.12821665 
H                  -1.99561634    6.41441265    7.08035053 
H                  -1.77291281    7.42217801    8.50063854 
H                  -3.41679034    6.69977756    8.19969779 
H                  -1.94283243    5.65606029    8.69942448 
12
M1_ref_8
C                  -1.80648433    5.32151512    8.91730199 
C                  -2.46984901    4.91509539   10.07383763 
H                  -3.36828197    5.43988191   10.37642653 
C                  -1.98595277    3.87119989   10.85219097 
H                  -2.48690776    3.63423773   11.78905854 
C                  -0.65512912    4.62959042    8.54014529 
H                  -0.12703209    4.90509695    7.63158787 
C                  -0.18160469    3.56748153    9.30410414 
H                   0.70696712    3.02362255    9.00599899 
C                  -0.83842609    3.17345227   10.47116160 
H                  -2.16394711    6.19858968    8.34609416 
H                  -0.40990005    2.34742564   11.05303457 
6
M1_ref_9
C                  -0.24644608    2.03235184   11.27498012 
O                   0.91355159    1.68737303   11.10908379 
N                  -1.10130736    1.44988189   12.16350120 
H                  -2.07593886    1.66843830   12.03558765 
H                  -0.67497212    2.85837847   10.69310715 
H                  -0.94737009    0.63517563   12.71806907 
12
M1_ref_10
C                  -0.88145634    0.28632996   12.95552717 
C                   0.31516038    0.07012944   13.64021681 
H                   1.12613646    0.77384452   13.53794556 
C                  -1.94815914   -0.59859219   13.08052434 
H                  -2.86276578   -0.44286678   12.51264685 
C                  -1.81859963   -1.71011445   13.91046417 
H                  -2.65127215   -2.40105560   13.99551169 
C                  -0.63790801   -1.97162279   14.59755833 
C                   0.44482428   -1.06885977   14.44977602 
H                  -1.05426166    1.20089458   12.33298605 
H                  -0.54669129   -2.86272470   15.21747535 
H                   1.35721729   -1.31284320   15.02194383 
5
M1_ref_11
C                  -0.51189822   -3.20262036   15.45393215 
H                  -1.40516767   -3.82522234   15.37738079 
H                  -0.36063092   -2.95908423   16.51130176 
H                   0.33754221   -3.82028505   15.14372237 
H                  -0.60311494   -2.31151845   14.83401513 
4
M1_ref_12
N                   1.60561339   -1.37926692   15.17771470 
H                   1.50254238   -2.05011649   15.92596218 
H                   0.79284162   -1.16192325   14.66802004 
H                   2.48769972   -0.99698801   15.13365533 
10
M1_ref_13
C                   2.86539657   -0.83330160   15.11478973 
N                   3.15037548    0.10167837   14.20326474 
N                   3.71370038   -1.30253392   16.04968810 
C                   4.96057889   -0.81518188   16.01895377 
H                   5.66549351   -1.21579907   16.73971755 
C                   5.37169161    0.14967785   15.11739907 
H                   6.39158655    0.50353510   15.10458679 
C                   4.38888514    0.62538199   14.23965826 
H                   1.87519313   -1.26243635   15.16424945 
H                   4.58607961    1.45131506   13.58692905 
11
M1_ref_14
C                   4.66129608    1.76635318   13.33795660 
C                   3.84134755    2.07997406   12.25596679 
H                   2.98994650    1.45450116   12.01323319 
C                   4.13962602    3.22443353   11.51616318 
H                   3.52487135    3.52270432   10.67568384 
C                   5.23182154    4.00547044   11.88830167 
H                   5.49399259    4.89597587   11.32552287 
N                   6.02079091    3.72138334   12.93367587 
C                   5.71393315    2.63895777   13.64406150 
H                   6.32803716    2.46365106   14.52163136 
H                   4.46410161    0.94042011   13.99068581 
