12
M1_conf_0_0
C                  -2.85566400    0.13658400   -0.39806900 
C                  -2.46230400    0.60515300    0.86390500 
C                  -4.08173600   -0.52446900   -0.52546500 
C                  -3.28548300    0.41331800    1.97238700 
H                  -1.50802500    1.11487700    0.96491100 
C                  -4.90811100   -0.71458200    0.58459700 
H                  -4.39373700   -0.89314400   -1.50055600 
C                  -4.51062300   -0.24607300    1.83658700 
H                  -2.97220600    0.78096800    2.94635300 
H                  -5.85845600   -1.22944700    0.46957200 
H                  -5.15048700   -0.39318400    2.70282100 
H                  -2.20692895    0.27990402   -1.27181967 
5
M1_conf_0_1
C                  -1.95948000    0.33457100   -1.60509700 
H                  -1.65016500    1.37790700   -1.68916000 
H                  -2.49825800    0.07289000   -2.52529500 
H                  -0.95607958   -0.24503508   -1.56881237 
H                  -2.60821505    0.19125098   -0.73134633 
4
M1_conf_0_2
N                  -0.68290700   -0.40283100   -1.55893400 
N                  -0.70572100   -1.64323000   -1.36061400 
N                  -0.04695300   -2.52104300   -0.96491900 
H                  -1.57674937    0.11348977   -1.59125682 
4
M1_conf_0_3
C                   1.29895800   -0.14302000   -0.42258200 
C                   1.61805900   -1.31333700   -0.18471200 
H                   1.52398737    0.89574338   -0.46351631 
H                   2.27030924   -2.05213216    0.22124399 
5
M1_conf_0_4
C                   2.51909900   -2.33393300    0.37608900 
H                   2.48265700   -3.25991000   -0.20925300 
H                   2.16981400   -2.59938700    1.38437300 
H                   3.57030743   -1.95977370    0.42803144 
H                   1.86684876   -1.59513784   -0.02986699 
5
M1_conf_0_5
C                   3.97127300   -1.81705700    0.44784400 
H                   4.36081400   -1.70761300   -0.57324000 
H                   4.57324800   -2.60434000    0.92168600 
H                   4.13112730   -0.86131031    1.00655948 
H                   2.92006457   -2.19121630    0.39590156 
5
M1_conf_0_6
C                   4.19210100   -0.49675700    1.21967200 
H                   3.56214700   -0.48651500    2.12080300 
H                   5.22587500   -0.52232900    1.58713800 
H                   4.07307170    0.47563472    0.66420170 
H                   4.03224670   -1.45250369    0.66095652 
5
M1_conf_0_7
C                   4.02767000    0.84653700    0.45232700 
H                   4.26651900    0.69429000   -0.61009800 
H                   4.80656200    1.52149500    0.82834200 
H                   4.14669930   -0.12585472    1.00779730 
H                   3.05999584    1.40226718    0.54471150 
5
M1_conf_0_8
C                   2.69089300    1.61424100    0.57995000 
H                   2.90488500    2.68841200    0.51262500 
H                   2.24624700    1.44513500    1.56828700 
H                   3.65856716    1.05851082    0.48756550 
H                   1.90832011    1.38094774   -0.18670318 
5
M1_conf_0_9
C                   1.60982100    1.29196200   -0.47913000 
H                   2.00488500    1.53347300   -1.48141000 
H                   2.39239389    1.52525526    0.28752318 
H                   1.38479163    0.25319862   -0.43819569 
H                   0.64105304    1.93476709   -0.30255788 
3
M1_conf_0_10
O                   0.42996500    2.07483000   -0.26408400 
H                   1.24030072    1.53714921   -0.41177953 
H                   0.50323172    3.00214990   -0.54753145 
5
M1_conf_0_11
C                   0.53664200    3.42501600   -0.67678600 
H                  -0.46248200    3.85942600   -0.58576400 
H                   1.22760100    4.00842600   -0.05196100 
H                   0.86522400    3.50074200   -1.72534300 
H                   0.44905058    2.31639178   -0.33792051 
