44
4HZZ X-ray
 C                   5.31200000   30.54800000   38.47300000
 O                   4.52500000   29.73900000   38.90700000
 O                   5.08300000   31.89700000   38.41800000
 C                   6.58700000   30.09500000   37.90100000
 C                   6.93300000   28.60400000   37.83200000
 C                   7.94700000   28.21700000   36.80900000
 N                   8.33500000   26.84100000   36.84000000
 C                   8.98900000   29.23500000   36.37200000
 N                   9.95100000   28.86400000   35.38900000
 C                   8.64900000   30.72300000   36.41300000
 C                   7.38800000   31.15900000   37.14900000
 O                   9.64900000   31.66600000   36.31500000
 C                   9.99300000   32.17500000   35.05600000
 C                   8.93400000   33.04200000   34.42700000
 C                  11.21000000   28.28000000   35.65500000
 O                  11.63600000   28.16300000   36.78700000
 C                  12.01500000   27.91000000   34.45100000
 C                  11.35500000   32.80300000   35.15000000
 C                  12.43600000   31.90800000   35.69300000
 C                   8.59700000   34.31500000   35.13800000
 H                   8.94993700   26.62103800   37.63792200
 H                   7.50621900   26.24320600   36.91475200
 H                   8.85847400   26.59488600   35.99178400
 H                   9.72425500   29.01541900   34.41312500
 H                   7.29965300   28.18926200   35.90286300
 H                   9.66750700   29.19787400   37.26288700
 H                   8.18487700   30.78073800   35.38632400
 H                   7.02189500   32.17727500   37.19936300
 H                  10.11026100   31.30985500   34.37064600
 H                   5.98447300   28.07404900   37.67349200
 H                   7.26042900   28.30283500   38.84443000
 H                   8.01745200   32.44839900   34.31005600
 H                   9.26833800   33.25758900   33.40220100
 H                  12.62096900   27.03350900   34.68686100
 H                  12.70115300   28.73391600   34.22569200
 H                  11.40991100   27.71444400   33.56083800
 H                  11.28698900   33.69830200   35.78348900
 H                  11.62135200   33.16291300   34.14721600
 H                  13.39165300   32.43738500   35.75795500
 H                  12.59041200   31.03157600   35.04653300
 H                  12.17666300   31.54025300   36.68981100
 H                   7.76441700   34.82803400   34.64707800
 H                   9.44238300   35.01259000   35.16220100
 H                   8.29876100   34.12319400   36.17473600
 44
 QR M1
 C                   5.30499161    30.65434359    38.43522114 
 O                   4.56351446    29.75156803    38.89309469 
 O                   5.09713493    31.88793812    38.37833991 
 C                   6.61370814    30.18087106    37.76916468 
 C                   6.88752143    28.68075282    37.76517522 
 C                   7.82097280    28.30529821    36.62708898 
 N                   8.25534876    26.84752737    36.79465301 
 C                   9.04957227    29.22650959    36.52077594 
 N                   9.93999117    28.81663103    35.46754285 
 C                   8.53071263    30.64101662    36.21922335 
 C                   7.40628542    31.03755114    37.12885397 
 O                   9.58612718    31.60262265    36.31614003 
 C                   9.96978553    32.12954975    35.02920571 
 C                   8.88426802    33.02501498    34.40369837 
 C                  11.18929013    28.29519964    35.65528864 
 O                  11.67587012    28.15549772    36.76808279 
 C                  11.94800859    27.96307738    34.38633177 
 C                  11.31095927    32.83677937    35.24014245 
 C                  12.39832428    31.87356709    35.72545032 
 C                   8.56609224    34.29923323    35.19151051 
 H                   8.77725606    26.70447395    37.66135329 
 H                   7.41901781    26.22235082    36.82219397 
 H                   8.83356833    26.51927429    35.99420647 
 H                   9.59329235    28.93373134    34.50819499 
 H                   7.28028582    28.30943675    35.67274460 
 H                   9.61237811    29.23358965    37.45749620 
 H                   8.15849347    30.63779616    35.18851006 
 H                   7.15801856    32.08963645    37.12762455 
 H                  10.16208842    31.28766062    34.34640681 
 H                   5.91527198    28.17907184    37.70175318 
 H                   7.31222534    28.41374626    38.73871584 
 H                   7.95944331    32.44962648    34.28945638 
 H                   9.20330870    33.28095671    33.38566012 
 H                  12.42321011    26.98867671    34.48807087 
 H                  12.71284472    28.71986237    34.20542818 
 H                  11.28343700    27.93964197    33.50979764 
 H                  11.17753421    33.64344119    35.96867728 
 H                  11.61221167    33.31117165    34.29753561 
 H                  13.36558028    32.37958863    35.81370846 
 H                  12.52253003    31.04143722    35.02011655 
 H                  12.13402791    31.45261748    36.69723513 
 H                   7.72552557    34.82888476    34.73495545 
 H                   9.42150260    34.98308264    35.20495797 
 H                   8.30260302    34.05934625    36.22445521 
 44
 QR M7
 C                   5.31546108    30.63386973    38.41118906 
 O                   4.54866921    29.75935546    38.90076317 
 O                   5.07620270    31.88223651    38.36140512 
 C                   6.59734997    30.15336180    37.77353344 
 C                   6.88849637    28.66859335    37.78095544 
 C                   7.85137108    28.27853279    36.66016597 
 N                   8.29348347    26.87987822    36.90709007 
 C                   9.05815842    29.22315494    36.54146980 
 N                   9.94278087    28.81646777    35.47823896 
 C                   8.52469902    30.62911852    36.24674665 
 C                   7.40058140    31.01613672    37.14499074 
 O                   9.57392422    31.59734060    36.31660555 
 C                   9.96144351    32.13070421    35.03487299 
 C                   8.88945036    33.02960796    34.40584730 
 C                  11.18003594    28.30885002    35.66662081 
 O                  11.68495031    28.16223233    36.78224620 
 C                  11.93997707    27.96609213    34.40104908 
 C                  11.29759318    32.83351577    35.26357959 
 C                  12.39183353    31.86100702    35.71460060 
 C                   8.54444366    34.28585258    35.21365556 
 H                   8.68578593    26.77492820    37.86169766 
 H                   7.45756973    26.22559515    36.86482018 
 H                   8.97667460    26.53563818    36.21270687 
 H                   9.58740548    28.89401456    34.52179532 
 H                   7.33543218    28.24744017    35.69423668 
 H                   9.62199884    29.21995954    37.47798455 
 H                   8.12525290    30.62510007    35.22418742 
 H                   7.14682332    32.07322660    37.16346585 
 H                  10.12676989    31.28755600    34.35321754 
 H                   5.96160793    28.09692575    37.68068369 
 H                   7.33166871    28.37440871    38.74692404 
 H                   7.98041472    32.44327382    34.23700232 
 H                   9.25011468    33.32053273    33.41176116 
 H                  12.32947608    26.95087097    34.48008925 
 H                  12.78016043    28.65808740    34.27632982 
 H                  11.31158018    28.03767000    33.50924684 
 H                  11.16059839    33.60447031    36.03079584 
 H                  11.58499088    33.34497207    34.33781989 
 H                  13.35542316    32.37103570    35.83603415 
 H                  12.52186466    31.05989599    34.97647088 
 H                  12.12014760    31.39573325    36.66455593 
 H                   7.66856461    34.78615312    34.78976097 
 H                   9.37298549    35.00168393    35.19659273 
 H                   8.33002343    34.04355654    36.25933349

 