4
frag_0
C                   5.22017500   30.71649700   37.97411200 
O                   4.62023100   29.82145000   38.61067800 
O                   4.96812300   31.91592500   37.77994100 
H                   6.16892171   30.34341122   37.49681632 
6
frag_1
C                   6.53080500   30.20110400   37.31476000 
C                   7.32900200   30.98657000   36.59869400 
H                   7.01408100   32.01935800   36.47356800 
H                   5.58205829   30.57418978   37.79205568 
H                   6.76040861   29.15854963   37.50798617 
H                   8.23643798   30.63643069   36.11590764 
5
frag_2
C                   6.84798700   28.76088500   37.58168900 
H                   5.93539300   28.17384200   37.43344600 
H                   7.07277800   28.66401400   38.65506100 
H                   6.61838339   29.80343937   37.38846283 
H                   7.68711493   28.36284253   36.98249381 
5
frag_3
C                   8.00718600   28.21101600   36.75394100 
H                   7.68016500   27.90277100   35.75446700 
H                   7.16805807   28.60905847   37.35313619 
H                   8.37617572   27.22146116   37.28807635 
H                   8.82636725   28.95082532   36.65997263 
5
frag_4
N                   8.47663200   26.95205800   37.43349300 
H                   9.38000900   26.61519700   36.95615300 
H                   8.66667900   27.14314000   38.42023400 
H                   7.74343800   26.24082400   37.40246000 
H                   8.14793107   27.83356654   36.95767816 
5
frag_5
C                   9.13883000   29.23301300   36.62413000 
H                   9.46581000   29.53373100   37.63045600 
H                   8.31964875   28.49320368   36.71809837 
H                  10.06802234   28.93908026   36.00238665 
H                   8.73615683   30.15224905   36.12293088 
4
frag_6
N                  10.32099200   28.85905800   35.83311900 
H                  10.76191100   29.70060500   35.47647800 
H                   9.49325517   29.12089718   36.38697620 
H                  10.80188461   28.05905496   35.72937760 
4
frag_7
C                  11.00779600   27.71650500   35.68495700 
O                  10.66992700   26.61097100   36.14557000 
H                  10.46796050   28.61456423   35.80141396 
H                  11.92429648   27.78060366   35.09437678 
5
frag_8
C                  12.27388000   27.80505300   34.86911000 
H                  12.17347500   27.14941100   33.99997000 
H                  13.10037100   27.42271500   35.47367700 
H                  12.50771100   28.81830800   34.53409200 
H                  11.35737952   27.74095434   35.45969022 
5
frag_9
C                   8.58256400   30.50287600   35.93175700 
H                   8.38576400   30.23445700   34.87677600 
H                   8.98523717   29.58363995   36.43295612 
H                   7.67512802   30.85301531   36.41454336 
H                   9.46824422   31.26494934   35.94571635 
3
frag_10
O                   9.66122800   31.43100000   35.94875800 
H                   8.92039186   30.79355608   35.93708156 
H                   9.75494996   32.01042504   35.15925663 
5
frag_11
C                   9.79768800   32.27464800   34.79923700 
H                   9.74144000   31.63216400   33.90019800 
H                   9.68564206   31.58193706   35.74309720 
H                   8.99931268   33.03978899   34.72557436 
H                  10.81026046   32.71239272   34.85388026 
5
frag_12
C                   8.69478600   33.33163900   34.69747700 
H                   7.73099700   32.82661800   34.56492300 
H                   8.86705800   33.89625800   33.77135700 
H                   9.49316132   32.56649801   34.77113964 
H                   8.64115908   34.01961012   35.56134011 
5
frag_13
C                   8.62070400   34.28202500   35.89084600 
H                   7.73062800   34.91407000   35.82268100 
H                   9.49422400   34.94152300   35.93921100 
H                   8.56128400   33.72644100   36.83190000 
H                   8.67433092   33.59405388   35.02698289 
5
frag_14
C                  11.19648900   32.87936300   34.87472300 
H                  11.27855000   33.46882600   35.79478300 
H                  11.30451700   33.57944500   34.03695400 
H                  10.18391654   32.44161828   34.82007974 
H                  12.00723408   32.12931069   34.84220894 
5
frag_15
C                  12.31647900   31.84321600   34.82980700 
H                  13.29916500   32.32250700   34.78047800 
H                  12.22210100   31.19842300   33.94444500 
H                  12.30694800   31.21547800   35.72843500 
H                  11.50573392   32.59326831   34.86232106 
