7 

N                  -3.46062001   -0.00000391    0.00111947 
C                  -2.28929787    0.00001081   -0.00117765 
C                   0.11422777    0.00000221   -0.00112015 
H                  -0.09330218    0.91876944   -0.52715143 
H                  -0.09404546   -0.00388532    1.05737589 
H                  -0.09331064   -0.91487892   -0.53388156 
Cl                  2.14027614   -0.00000307    0.00044564 

