7 

N                  -3.47238416   -0.00000414    0.00114201 
C                  -2.30075034    0.00001324   -0.00123708 
C                   0.15729976    0.00000110   -0.00108735 
H                  -0.08465843    0.91340728   -0.52397101 
H                  -0.08520745   -0.00386628    1.05119351 
H                  -0.08467076   -0.90954111   -0.53066046 
Cl                  2.13338360   -0.00000327    0.00043943 

