7 

N                  -3.49283265   -0.00000481    0.00118656 
C                  -2.32045162    0.00001785   -0.00135831 
C                   0.22382989   -0.00000060   -0.00099456 
H                  -0.06371882    0.90502193   -0.51897410 
H                  -0.06400648   -0.00381099    1.04159423 
H                  -0.06372612   -0.90121555   -0.52556537 
Cl                  2.12368430   -0.00000387    0.00041715 

