7 

N                  -3.46392631   -0.00000396    0.00112552 
C                  -2.29253485    0.00001140   -0.00119340 
C                   0.12657333    0.00000196   -0.00111238 
H                  -0.09121140    0.91725440   -0.52625712 
H                  -0.09189663   -0.00388078    1.05562855 
H                  -0.09122045   -0.91336971   -0.53297667 
Cl                  2.13829225   -0.00000312    0.00044446 

