7 

N                  -3.38378341   -0.00000296    0.00094612 
C                  -2.21078642    0.00000633   -0.00093969 
C                  -0.17844052    0.00000462   -0.00114932 
H                  -0.09922817    0.93259685   -0.53487694 
H                  -0.10003581   -0.00391005    1.07335177 
H                  -0.09923235   -0.92866453   -0.54167370 
Cl                  2.18351261   -0.00000322    0.00043020 

