7 

N                  -3.60545013   -0.00000557    0.00145922 
C                  -2.43068780   -0.00002450   -0.00141623 
C                   0.35086561    0.00003187   -0.00128774 
H                   0.01427630    0.89455532   -0.51408640 
H                   0.01236959   -0.00358238    1.02910034 
H                   0.01426209   -0.89086272   -0.52034435 
Cl                  2.15631922   -0.00000347    0.00049720 

