7 

N                  -3.35201211   -0.00000258    0.00086940 
C                  -2.17785199    0.00000649   -0.00087404 
C                  -0.28972865    0.00000553   -0.00112638 
H                  -0.10425663    0.92333941   -0.52947139 
H                  -0.10498139   -0.00386383    1.06275445 
H                  -0.10427679   -0.91946372   -0.53617184 
Cl                  2.19811050   -0.00000343    0.00042157 

