7 

N                  -3.50399300   -0.00000525    0.00121304 
C                  -2.33120822    0.00001866   -0.00142587 
C                   0.25301092   -0.00000028   -0.00093235 
H                  -0.05138224    0.90151771   -0.51691877 
H                  -0.05160874   -0.00377570    1.03764180 
H                  -0.05137510   -0.89774573   -0.52345438 
Cl                  2.12076166   -0.00000411    0.00040222 

