7 

N                  -3.54839048   -0.00000649    0.00132340 
C                  -2.37445897    0.00000705   -0.00161168 
C                   0.31740301    0.00000772   -0.00078609 
H                  -0.01429084    0.89536443   -0.51374275 
H                  -0.01538867   -0.00364313    1.03070269 
H                  -0.01427851   -0.89168771   -0.52008225 
Cl                  2.12810347   -0.00000343    0.00038286 

