6 

C                  -0.50225820    0.11793040   -0.80668390 
H                  -0.84652190    1.21458890   -0.74286430 
H                   0.41422020   -0.02452800   -0.37148890 
H                  -1.28937170   -0.46282660   -0.62083690 
Cl                  0.11713010   -0.04179450    2.99576690 
Cl                  0.10438820   -0.01936320   -2.66950130 

