6 

C                   0.18758140   -0.09599470    0.15939740 
H                   0.28580280    0.93842710   -0.02992010 
H                   1.05635530   -0.61411280    0.10554970 
H                  -0.68250550   -0.69264620   -0.31462170 
Cl                 -0.04067110    0.02338470    2.39108760 
Cl                 -0.04274680    0.02018920   -2.43887190 

