6 

C                   0.17705630   -0.03314080   -0.01158760 
H                   0.26171600    0.93821810    0.02970990 
H                   1.11771440   -0.56896190   -0.07856440 
H                  -0.64227330   -0.59465380   -0.09611440 
Cl                 -0.04090770    0.00966530    2.34343870 
Cl                 -0.04110080    0.00820550   -2.33528420 

