6 

C                  -0.13499530   -0.12922100    0.57535860 
H                  -0.17614460    1.01029150    0.33568130 
H                   0.76747630   -0.79599860    0.19656670 
H                  -1.07079530   -0.39663130    0.16194000 
Cl                  0.03729470    0.02824860    2.67429740 
Cl                  0.02230530    0.02183840   -2.89129770 

