6 

C                  -0.23477820   -0.06362290    0.74117240 
H                  -0.16936900    1.00846480    0.56585410 
H                   0.48997570   -0.64806940    0.38873460 
H                  -1.26227540   -0.38454080    0.66112600 
Cl                  0.05946780    0.00994690    2.67876700 
Cl                  0.04755850    0.01350870   -2.97903420 

