6 

C                  -0.11857220    0.09128860   -0.47665650 
H                  -0.16312950    1.12596340   -0.27764540 
H                   0.73934570   -0.35825700    0.12364880 
H                  -1.00558580   -0.67003610   -0.06355320 
Cl                  0.02672910   -0.01969110    2.50309430 
Cl                  0.02608530   -0.01433030   -2.33332970 

