6 

C                   0.00765860    0.06449510   -0.24727580 
H                   0.09282990    1.09030120   -0.14882940 
H                   0.99312990   -0.45467140   -0.14553940 
H                  -0.84765370   -0.74827000    0.09440560 
Cl                 -0.00604490   -0.00986740    2.37997230 
Cl                 -0.00359920   -0.00895140   -2.28934400 

