6 

C                  -0.01262430    0.06306560   -0.28439470 
H                  -0.01379340    1.08523570   -0.08040800 
H                   0.94492360   -0.42776530   -0.20391390 
H                  -0.77253510   -0.56740400   -0.10824480 
Cl                 -0.00082030   -0.01142780    2.39624820 
Cl                  0.00041660   -0.01273090   -2.28733770 

