6 

C                  -0.27086340    0.16134730   -0.46018480 
H                  -0.42582420    1.11462120   -0.09270860 
H                   0.57388130   -0.32772340    0.09640910 
H                  -1.11625200   -0.69291760   -0.31018790 
Cl                  0.05683440   -0.02848870    2.65301110 
Cl                  0.06370430   -0.02941250   -2.48646580 

