6 

C                  -0.01535120    0.05751620   -0.29831520 
H                  -0.05949710    1.11743910   -0.04576630 
H                   0.91117390   -0.40472780   -0.21087680 
H                  -0.76276700   -0.49903680   -0.16925160 
Cl                  0.00093830   -0.01193690    2.40196410 
Cl                  0.00159780   -0.01387670   -2.28731960 

