6 

C                  -0.24070300    0.10584600   -0.45341500 
H                  -0.46752430    1.16128950   -0.18575060 
H                   0.70905880   -0.25120400   -0.15597030 
H                  -1.08876220   -0.38675030   -0.25530560 
Cl                  0.04945660   -0.02650310    2.61398440 
Cl                  0.05726240   -0.02473970   -2.44135140 

