6 

C                  -0.15027070   -0.05792080    0.72209560 
H                  -0.01174810    0.90849750    0.35512200 
H                   0.66515790   -0.71606210    0.39288830 
H                  -1.21167620   -0.60070100    0.83464830 
Cl                  0.03504530    0.01331830    2.63994920 
Cl                  0.03202450    0.01896270   -2.93285270 

