6 

C                   0.22106560   -0.07613880    0.01820890 
H                   0.12318310    1.11892270    0.00049740 
H                   1.15989740   -0.54836600   -0.01086260 
H                  -0.85248630   -0.52149130    0.17999570 
Cl                 -0.04524990    0.01179070    2.34710700 
Cl                 -0.04302390    0.01292170   -2.35824570 

