6 

C                  -0.56450090    0.14445060   -0.80171790 
H                  -0.90802810    1.02125280   -0.91414940 
H                   0.22966380    0.00299230   -0.09751950 
H                  -1.36747980   -0.59288210   -0.75246730 
Cl                  0.13389310   -0.04420710    3.07728720 
Cl                  0.11837870   -0.01750690   -2.75206340 

