6 

C                   0.16110910   -0.02786960   -0.02975100 
H                   0.30831770    1.12784450    0.04973170 
H                   1.06137380   -0.57931150   -0.08243280 
H                  -0.62030510   -0.69098020   -0.25664680 
Cl                 -0.03759480    0.00804550    2.34201360 
Cl                 -0.03929960    0.00562620   -2.32346520 

