6 

C                  -0.13147450   -0.10441450    0.61870420 
H                  -0.04743160    0.88018960    0.40084250 
H                   0.61809280   -0.69004290    0.20647580 
H                  -1.18146700   -0.55517390    0.26307440 
Cl                  0.03680230    0.02579650    2.66865140 
Cl                  0.02536220    0.02109190   -2.90558580 

