16

 C                 -2.58197800   -0.04579800    0.06552100
 C                 -3.58663900   -0.68445300   -0.13711000
 H                 -4.47463000   -1.24716500   -0.31445300
 C                 -1.35441000    0.71470400    0.30300100
 H                 -1.24209000    0.89543900    1.38154600
 H                 -1.44664300    1.70669300   -0.16248800
 N                  2.36130100    0.12633400   -0.48884500
 O                  2.65858300   -0.96763600    0.41397000
 H                  2.63968900   -1.73452300   -0.17951500
 H                  3.16244400    0.74581100   -0.35676600
 C                  1.17580500    0.81372600    0.03333300
 H                  1.13150300    1.77818300   -0.49221400
 H                  1.27141300    1.02375800    1.11167600
 C                 -0.09370800    0.00656300   -0.23321700
 H                 -0.19480800   -0.16538000   -1.31100700
 H                  0.00093000   -0.97452200    0.24420500