19
M1_ref_11.gjf
Al    0.000000    0.000000    0.000000
 N    0.000000    0.000000    1.976844
 N    1.965709    0.000000   -0.058596
 O   -0.209727   -0.325274   -1.791567
 C   -2.842702   -0.279857    1.079932
 C    0.946913    2.810964   -0.535293
 N   -2.073174    0.111928    0.111749
 H   -3.931022   -0.253792    0.935340
 N   -0.048296    2.034664   -0.227826
 H    0.749652    3.880978   -0.682574
 H    0.757191    0.079986    2.574649
 H   -0.718212   -0.315909    2.520725
 H    2.580026   -0.735414    0.055969
 H    2.502925    0.749361   -0.301083
 H    0.398344   -0.066720   -2.474294
 H   -2.499404   -0.558101    2.018261
 H    1.936990    2.509721   -0.624164
 H   -2.523324    0.555391   -0.689863
 H   -0.956237    2.489132   -0.094629
