68
others-c.gjf
 O    4.995329   -3.136541   -2.280807
 O    5.034014    2.860268    1.638203
 O   -4.778038    1.391428    3.166207
 N    3.263817   -1.683735   -2.524198
 H    2.782717   -0.834969   -2.225131
 N    3.451211    2.683555    0.016832
 H    3.039963    2.137241   -0.736945
 N   -2.978639    1.368484    1.814295
 C   -4.923364   -2.024331   -0.163059
 C   -6.316087   -2.038325   -0.069718
 H   -6.854713   -2.766479   -0.673005
 C   -6.979777   -1.152266    0.766254
 H   -8.065685   -1.183870    0.848006
 C   -6.251714   -0.224978    1.496686
 H   -6.734936    0.479311    2.170430
 C   -4.860507   -0.164859    1.380825
 C   -4.191362   -1.078009    0.560468
 H   -3.102505   -1.054495    0.487501
 O   -4.999189   -3.584980   -1.953385
 N   -3.051617   -3.432452   -0.788593
 H   -2.506048   -3.003745   -0.028325
 C   -4.325648   -3.067726   -1.062346
 C   -2.407268   -4.505531   -1.515841
 H   -3.120446   -4.829550   -2.284533
 H   -2.229316   -5.358593   -0.841239
 C   -1.104934   -4.062162   -2.121688
 C   -1.100416   -3.147979   -3.174028
 H   -2.055502   -2.806083   -3.577801
 C    0.096807   -2.635080   -3.661173
 H    0.087839   -1.889497   -4.459572
 C    1.314406   -3.043874   -3.119631
 C    1.312619   -3.994859   -2.099227
 H    2.268466   -4.320199   -1.683799
 C    0.115740   -4.490889   -1.599913
 H    0.120039   -5.197151   -0.767690
 C    2.616471   -2.445579   -3.572176
 H    3.329733   -3.224437   -3.869994
 H    2.445070   -1.789219   -4.439486
 C    4.440096   -2.083822   -1.974227
 C    5.081989   -1.124189   -1.015863
 C    6.387685   -1.397036   -0.608776
 H    6.845370   -2.321157   -0.957373
 C    7.069288   -0.505891    0.213167
 H    8.089307   -0.726506    0.525778
 C    6.452586    0.665535    0.632758
 H    6.959132    1.382698    1.275932
 C    5.145119    0.950131    0.233156
 C    4.463435    0.044255   -0.575614
 H    3.429431    0.244321   -0.849979
 C    4.543036    2.235166    0.702677
 C    2.761577    3.894842    0.417153
 H    2.659028    4.565676   -0.448956
 H    3.419389    4.381982    1.148011
 C    1.407449    3.611291    1.008079
 C    0.253671    4.176208    0.471024
 H    0.331524    4.862648   -0.373918
 C   -0.994120    3.859628    0.999760
 H   -1.895162    4.298833    0.564403
 C   -1.116427    2.949501    2.046692
 C    0.044927    2.414149    2.611138
 H   -0.041393    1.721545    3.450846
 C    1.292097    2.749913    2.103288
 H    2.197029    2.332862    2.548847
 C   -2.463795    2.526717    2.541820
 H   -2.413923    2.262864    3.607743
 H   -3.189327    3.352428    2.458338
 C   -4.205292    0.910217    2.188269
 H   -2.562498    1.121473    0.917056
