4
M3_ref_0
O                   1.66660800   -2.52212700    0.13163900 
C                   0.47217500   -2.20608200    0.29100500 
H                  -0.36626215   -2.84961043    0.18408943 
H                   0.05281191   -1.23647507    0.45444832 
4
M3_ref_1
O                  -1.04226200    1.77310200    0.89368700 
C                   0.03301100    1.55991600    0.28019600 
H                   0.61417417    2.42745285   -0.04019073 
H                   0.37595634    0.60986485    0.05869050 
6
M3_ref_2
N                  -0.59452400   -3.02480900    0.15498200 
C                  -1.67262900   -2.18990900   -0.25685100 
H                  -0.52300249   -4.02514032   -0.02018218 
H                   0.15236691   -2.45154536    0.25022381 
H                  -1.66010300   -1.91150700   -1.31250200 
H                  -2.60115830   -2.30496344    0.20336966 
7
M3_ref_3
N                  -0.59452400   -3.02480900    0.15498200 
C                  -0.49237800   -4.45346800   -0.09518500 
H                  -1.34940126   -2.44022120   -0.13337894 
H                   0.15236691   -2.45154536    0.25022381 
H                  -1.41254300   -4.91891900    0.28650100 
H                   0.35764300   -4.83601300    0.48582800 
H                  -0.35849673   -4.67029936   -1.15368224 
6
M3_ref_4
N                  -0.59452400   -3.02480900    0.15498200 
C                   0.47217500   -2.20608200    0.29100500 
H                  -1.34940126   -2.44022120   -0.13337894 
H                  -0.52300249   -4.02514032   -0.02018218 
O                   1.66660800   -2.52212700    0.13163900 
H                   0.05281191   -1.23647507    0.45444832 
9
M3_ref_5
C                  -1.67262900   -2.18990900   -0.25685100 
N                  -0.59452400   -3.02480900    0.15498200 
C                  -0.49237800   -4.45346800   -0.09518500 
H                  -1.66010300   -1.91150700   -1.31250200 
H                  -2.60115830   -2.30496344    0.20336966 
H                   0.15236691   -2.45154536    0.25022381 
H                  -1.41254300   -4.91891900    0.28650100 
H                   0.35764300   -4.83601300    0.48582800 
H                  -0.35849673   -4.67029936   -1.15368224 
8
M3_ref_6
C                  -1.67262900   -2.18990900   -0.25685100 
N                  -0.59452400   -3.02480900    0.15498200 
C                   0.47217500   -2.20608200    0.29100500 
H                  -1.66010300   -1.91150700   -1.31250200 
H                  -2.60115830   -2.30496344    0.20336966 
H                  -0.52300249   -4.02514032   -0.02018218 
O                   1.66660800   -2.52212700    0.13163900 
H                   0.05281191   -1.23647507    0.45444832 
9
M3_ref_7
C                  -0.49237800   -4.45346800   -0.09518500 
N                  -0.59452400   -3.02480900    0.15498200 
C                   0.47217500   -2.20608200    0.29100500 
H                  -1.41254300   -4.91891900    0.28650100 
H                   0.35764300   -4.83601300    0.48582800 
H                  -0.35849673   -4.67029936   -1.15368224 
H                  -1.34940126   -2.44022120   -0.13337894 
O                   1.66660800   -2.52212700    0.13163900 
H                   0.05281191   -1.23647507    0.45444832 
7
M3_ref_8
N                   0.77239400    2.66363700   -0.12741500 
C                   0.26754300    3.99482400    0.18211000 
H                   1.71416851    2.62642195   -0.50675429 
H                   0.25468616    1.89082370    0.15798974 
H                   1.12664500    4.63620200    0.43316400 
H                  -0.36544800    3.91282500    1.07184800 
H                  -0.29748694    4.42096773   -0.64743585 
7
M3_ref_9
N                   0.77239400    2.66363700   -0.12741500 
C                   2.11742300    2.61048700   -0.66918200 
H                   0.41890288    3.59571949    0.08931100 
H                   0.25468616    1.89082370    0.15798974 
H                   2.88291000    2.80057005    0.08759159 
H                   2.20026300    3.35799100   -1.47633300 
H                   2.28115500    1.63926900   -1.14819200 
6
M3_ref_10
N                   0.77239400    2.66363700   -0.12741500 
C                   0.03301100    1.55991600    0.28019600 
H                   0.41890288    3.59571949    0.08931100 
H                   1.71416851    2.62642195   -0.50675429 
O                  -1.04226200    1.77310200    0.89368700 
H                   0.37595634    0.60986485    0.05869050 
10
M3_ref_11
C                   0.26754300    3.99482400    0.18211000 
N                   0.77239400    2.66363700   -0.12741500 
C                   2.11742300    2.61048700   -0.66918200 
H                   1.12664500    4.63620200    0.43316400 
H                  -0.36544800    3.91282500    1.07184800 
H                  -0.29748694    4.42096773   -0.64743585 
H                   0.25468616    1.89082370    0.15798974 
H                   2.88291000    2.80057005    0.08759159 
H                   2.20026300    3.35799100   -1.47633300 
H                   2.28115500    1.63926900   -1.14819200 
9
M3_ref_12
C                   0.26754300    3.99482400    0.18211000 
N                   0.77239400    2.66363700   -0.12741500 
C                   0.03301100    1.55991600    0.28019600 
H                   1.12664500    4.63620200    0.43316400 
H                  -0.36544800    3.91282500    1.07184800 
H                  -0.29748694    4.42096773   -0.64743585 
H                   1.71416851    2.62642195   -0.50675429 
O                  -1.04226200    1.77310200    0.89368700 
H                   0.37595634    0.60986485    0.05869050 
9
M3_ref_13
C                   2.11742300    2.61048700   -0.66918200 
N                   0.77239400    2.66363700   -0.12741500 
C                   0.03301100    1.55991600    0.28019600 
H                   2.88291000    2.80057005    0.08759159 
H                   2.20026300    3.35799100   -1.47633300 
H                   2.28115500    1.63926900   -1.14819200 
H                   0.41890288    3.59571949    0.08931100 
O                  -1.04226200    1.77310200    0.89368700 
H                   0.37595634    0.60986485    0.05869050 
5
M3_ref_14
C                   0.26754300    3.99482400    0.18211000 
H                   1.12664500    4.63620200    0.43316400 
H                   0.66436144    2.94849637   -0.06118005 
H                  -0.36544800    3.91282500    1.07184800 
H                  -0.29748694    4.42096773   -0.64743585 
5
M3_ref_15
C                   0.26754300    3.99482400    0.18211000 
H                  -0.36544800    3.91282500    1.07184800 
H                   0.66436144    2.94849637   -0.06118005 
H                   1.12664500    4.63620200    0.43316400 
H                  -0.29748694    4.42096773   -0.64743585 
15
M3_ref_16
C                   0.26754300    3.99482400    0.18211000 
C                  -0.51300800    4.58351300   -0.96385200 
C                  -1.84061800    4.19655800   -1.17313200 
C                   0.07634000    5.48126700   -1.85517800 
H                  -2.29336200    3.48422400   -0.48171300 
C                  -2.56084700    4.69621600   -2.25275400 
C                  -0.63841100    5.97637700   -2.94318400 
H                   1.10781200    5.79991900   -1.68644800 
H                  -3.59120600    4.37448500   -2.40982900 
C                  -1.95788300    5.58341200   -3.14376600 
H                  -0.16462200    6.67408500   -3.63327300 
H                  -2.52012800    5.96870400   -3.99350900 
H                   0.66436144    2.94849637   -0.06118005 
H                   1.12664500    4.63620200    0.43316400 
H                  -0.36544800    3.91282500    1.07184800 
7
M3_ref_17
N                   0.77239400    2.66363700   -0.12741500 
C                   0.26754300    3.99482400    0.18211000 
H                   1.12664500    4.63620200    0.43316400 
H                   1.71416851    2.62642195   -0.50675429 
H                   0.25468616    1.89082370    0.15798974 
H                  -0.36544800    3.91282500    1.07184800 
H                  -0.29748694    4.42096773   -0.64743585 
7
M3_ref_18
N                   0.77239400    2.66363700   -0.12741500 
C                   0.26754300    3.99482400    0.18211000 
H                  -0.36544800    3.91282500    1.07184800 
H                   1.71416851    2.62642195   -0.50675429 
H                   0.25468616    1.89082370    0.15798974 
H                   1.12664500    4.63620200    0.43316400 
H                  -0.29748694    4.42096773   -0.64743585 
17
M3_ref_19
N                   0.77239400    2.66363700   -0.12741500 
C                   0.26754300    3.99482400    0.18211000 
C                  -0.51300800    4.58351300   -0.96385200 
C                  -1.84061800    4.19655800   -1.17313200 
C                   0.07634000    5.48126700   -1.85517800 
H                  -2.29336200    3.48422400   -0.48171300 
C                  -2.56084700    4.69621600   -2.25275400 
C                  -0.63841100    5.97637700   -2.94318400 
H                   1.10781200    5.79991900   -1.68644800 
H                  -3.59120600    4.37448500   -2.40982900 
C                  -1.95788300    5.58341200   -3.14376600 
H                  -0.16462200    6.67408500   -3.63327300 
H                  -2.52012800    5.96870400   -3.99350900 
H                   1.71416851    2.62642195   -0.50675429 
H                   0.25468616    1.89082370    0.15798974 
H                   1.12664500    4.63620200    0.43316400 
H                  -0.36544800    3.91282500    1.07184800 
5
M3_ref_20
H                   1.12664500    4.63620200    0.43316400 
C                   0.26754300    3.99482400    0.18211000 
H                  -0.36544800    3.91282500    1.07184800 
H                   0.66436144    2.94849637   -0.06118005 
H                  -0.29748694    4.42096773   -0.64743585 
15
M3_ref_21
H                   1.12664500    4.63620200    0.43316400 
C                   0.26754300    3.99482400    0.18211000 
C                  -0.51300800    4.58351300   -0.96385200 
C                  -1.84061800    4.19655800   -1.17313200 
C                   0.07634000    5.48126700   -1.85517800 
H                  -2.29336200    3.48422400   -0.48171300 
C                  -2.56084700    4.69621600   -2.25275400 
C                  -0.63841100    5.97637700   -2.94318400 
H                   1.10781200    5.79991900   -1.68644800 
H                  -3.59120600    4.37448500   -2.40982900 
C                  -1.95788300    5.58341200   -3.14376600 
H                  -0.16462200    6.67408500   -3.63327300 
H                  -2.52012800    5.96870400   -3.99350900 
H                   0.66436144    2.94849637   -0.06118005 
H                  -0.36544800    3.91282500    1.07184800 
15
M3_ref_22
H                  -0.36544800    3.91282500    1.07184800 
C                   0.26754300    3.99482400    0.18211000 
C                  -0.51300800    4.58351300   -0.96385200 
C                  -1.84061800    4.19655800   -1.17313200 
C                   0.07634000    5.48126700   -1.85517800 
H                  -2.29336200    3.48422400   -0.48171300 
C                  -2.56084700    4.69621600   -2.25275400 
C                  -0.63841100    5.97637700   -2.94318400 
H                   1.10781200    5.79991900   -1.68644800 
H                  -3.59120600    4.37448500   -2.40982900 
C                  -1.95788300    5.58341200   -3.14376600 
H                  -0.16462200    6.67408500   -3.63327300 
H                  -2.52012800    5.96870400   -3.99350900 
H                   0.66436144    2.94849637   -0.06118005 
H                   1.12664500    4.63620200    0.43316400 
15
M3_ref_23
C                   3.17489200    2.87307400    0.37625000 
C                   2.11742300    2.61048700   -0.66918200 
C                   3.29861600    2.02612800    1.48221700 
C                   4.01472400    3.98104700    0.27806300 
H                   2.64749400    1.15051200    1.56259100 
C                   4.24838300    2.28675700    2.46237800 
C                   4.96623200    4.24572400    1.26087800 
H                   3.91708700    4.64683900   -0.58249100 
H                   4.36246100    1.60247300    3.30543400 
C                   5.08290400    3.39875900    2.35666800 
H                   5.61200400    5.11884300    1.17130600 
H                   5.82705300    3.59669000    3.12745300 
H                   1.06021541    2.65226348   -0.24334718 
H                   2.20026300    3.35799100   -1.47633300 
H                   2.28115500    1.63926900   -1.14819200 
4
M3_ref_24
C                  -1.67262900   -2.18990900   -0.25685100 
H                  -1.66010300   -1.91150700   -1.31250200 
H                  -0.82522661   -2.84614958    0.06685427 
H                  -2.60115830   -2.30496344    0.20336966 
14
M3_ref_25
C                  -1.67262900   -2.18990900   -0.25685100 
C                  -2.95533000   -2.34884900    0.37891300 
C                  -4.15042800   -2.05890300   -0.31016100 
C                  -3.06584000   -2.74408900    1.72794200 
H                  -4.08882600   -1.74155100   -1.35443800 
C                  -5.38396500   -2.16228500    0.31453200 
C                  -4.30167500   -2.82960900    2.35354900 
H                  -2.15066700   -2.96044300    2.28204000 
H                  -6.28952300   -1.92266500   -0.24361600 
C                  -5.47255900   -2.54334700    1.65327100 
H                  -4.35211100   -3.09930800    3.40913500 
H                  -6.44046800   -2.59552100    2.14995100 
H                  -0.82522661   -2.84614958    0.06685427 
H                  -1.66010300   -1.91150700   -1.31250200 
6
M3_ref_26
N                  -0.59452400   -3.02480900    0.15498200 
C                  -1.67262900   -2.18990900   -0.25685100 
H                  -1.66010300   -1.91150700   -1.31250200 
H                  -0.52300249   -4.02514032   -0.02018218 
H                   0.15236691   -2.45154536    0.25022381 
H                  -2.60115830   -2.30496344    0.20336966 
16
M3_ref_27
N                  -0.59452400   -3.02480900    0.15498200 
C                  -1.67262900   -2.18990900   -0.25685100 
C                  -2.95533000   -2.34884900    0.37891300 
C                  -4.15042800   -2.05890300   -0.31016100 
C                  -3.06584000   -2.74408900    1.72794200 
H                  -4.08882600   -1.74155100   -1.35443800 
C                  -5.38396500   -2.16228500    0.31453200 
C                  -4.30167500   -2.82960900    2.35354900 
H                  -2.15066700   -2.96044300    2.28204000 
H                  -6.28952300   -1.92266500   -0.24361600 
C                  -5.47255900   -2.54334700    1.65327100 
H                  -4.35211100   -3.09930800    3.40913500 
H                  -6.44046800   -2.59552100    2.14995100 
H                  -0.52300249   -4.02514032   -0.02018218 
H                   0.15236691   -2.45154536    0.25022381 
H                  -1.66010300   -1.91150700   -1.31250200 
14
M3_ref_28
H                  -1.66010300   -1.91150700   -1.31250200 
C                  -1.67262900   -2.18990900   -0.25685100 
C                  -2.95533000   -2.34884900    0.37891300 
C                  -4.15042800   -2.05890300   -0.31016100 
C                  -3.06584000   -2.74408900    1.72794200 
H                  -4.08882600   -1.74155100   -1.35443800 
C                  -5.38396500   -2.16228500    0.31453200 
C                  -4.30167500   -2.82960900    2.35354900 
H                  -2.15066700   -2.96044300    2.28204000 
H                  -6.28952300   -1.92266500   -0.24361600 
C                  -5.47255900   -2.54334700    1.65327100 
H                  -4.35211100   -3.09930800    3.40913500 
H                  -6.44046800   -2.59552100    2.14995100 
H                  -0.82522661   -2.84614958    0.06685427 
5
M3_ref_29
C                  -0.49237800   -4.45346800   -0.09518500 
H                  -1.41254300   -4.91891900    0.28650100 
H                  -0.57266588   -3.33052631    0.10144901 
H                   0.35764300   -4.83601300    0.48582800 
H                  -0.35849673   -4.67029936   -1.15368224 
5
M3_ref_30
C                  -0.49237800   -4.45346800   -0.09518500 
H                   0.35764300   -4.83601300    0.48582800 
H                  -0.57266588   -3.33052631    0.10144901 
H                  -1.41254300   -4.91891900    0.28650100 
H                  -0.35849673   -4.67029936   -1.15368224 
15
M3_ref_31
C                  -0.49237800   -4.45346800   -0.09518500 
C                  -0.30743000   -4.75300600   -1.55742800 
C                   0.97209700   -4.91489900   -2.09055400 
C                  -1.41191900   -4.80854800   -2.41142900 
H                   1.83319900   -4.82919800   -1.42759200 
C                   1.14458200   -5.15963000   -3.44977700 
C                  -1.24059600   -5.04217900   -3.77277400 
H                  -2.41076200   -4.65982400   -1.99623800 
H                   2.14782000   -5.29480200   -3.85382500 
C                   0.03831400   -5.22453500   -4.29383300 
H                  -2.10879800   -5.08250600   -4.42955700 
H                   0.17322400   -5.41175700   -5.35846700 
H                  -0.57266588   -3.33052631    0.10144901 
H                  -1.41254300   -4.91891900    0.28650100 
H                   0.35764300   -4.83601300    0.48582800 
7
M3_ref_32
N                  -0.59452400   -3.02480900    0.15498200 
C                  -0.49237800   -4.45346800   -0.09518500 
H                  -1.41254300   -4.91891900    0.28650100 
H                  -1.34940126   -2.44022120   -0.13337894 
H                   0.15236691   -2.45154536    0.25022381 
H                   0.35764300   -4.83601300    0.48582800 
H                  -0.35849673   -4.67029936   -1.15368224 
7
M3_ref_33
N                  -0.59452400   -3.02480900    0.15498200 
C                  -0.49237800   -4.45346800   -0.09518500 
H                   0.35764300   -4.83601300    0.48582800 
H                  -1.34940126   -2.44022120   -0.13337894 
H                   0.15236691   -2.45154536    0.25022381 
H                  -1.41254300   -4.91891900    0.28650100 
H                  -0.35849673   -4.67029936   -1.15368224 
17
M3_ref_34
N                  -0.59452400   -3.02480900    0.15498200 
C                  -0.49237800   -4.45346800   -0.09518500 
C                  -0.30743000   -4.75300600   -1.55742800 
C                   0.97209700   -4.91489900   -2.09055400 
C                  -1.41191900   -4.80854800   -2.41142900 
H                   1.83319900   -4.82919800   -1.42759200 
C                   1.14458200   -5.15963000   -3.44977700 
C                  -1.24059600   -5.04217900   -3.77277400 
H                  -2.41076200   -4.65982400   -1.99623800 
H                   2.14782000   -5.29480200   -3.85382500 
C                   0.03831400   -5.22453500   -4.29383300 
H                  -2.10879800   -5.08250600   -4.42955700 
H                   0.17322400   -5.41175700   -5.35846700 
H                  -1.34940126   -2.44022120   -0.13337894 
H                   0.15236691   -2.45154536    0.25022381 
H                  -1.41254300   -4.91891900    0.28650100 
H                   0.35764300   -4.83601300    0.48582800 
5
M3_ref_35
H                  -1.41254300   -4.91891900    0.28650100 
C                  -0.49237800   -4.45346800   -0.09518500 
H                   0.35764300   -4.83601300    0.48582800 
H                  -0.57266588   -3.33052631    0.10144901 
H                  -0.35849673   -4.67029936   -1.15368224 
15
M3_ref_36
H                  -1.41254300   -4.91891900    0.28650100 
C                  -0.49237800   -4.45346800   -0.09518500 
C                  -0.30743000   -4.75300600   -1.55742800 
C                   0.97209700   -4.91489900   -2.09055400 
C                  -1.41191900   -4.80854800   -2.41142900 
H                   1.83319900   -4.82919800   -1.42759200 
C                   1.14458200   -5.15963000   -3.44977700 
C                  -1.24059600   -5.04217900   -3.77277400 
H                  -2.41076200   -4.65982400   -1.99623800 
H                   2.14782000   -5.29480200   -3.85382500 
C                   0.03831400   -5.22453500   -4.29383300 
H                  -2.10879800   -5.08250600   -4.42955700 
H                   0.17322400   -5.41175700   -5.35846700 
H                  -0.57266588   -3.33052631    0.10144901 
H                   0.35764300   -4.83601300    0.48582800 
15
M3_ref_37
H                   0.35764300   -4.83601300    0.48582800 
C                  -0.49237800   -4.45346800   -0.09518500 
C                  -0.30743000   -4.75300600   -1.55742800 
C                   0.97209700   -4.91489900   -2.09055400 
C                  -1.41191900   -4.80854800   -2.41142900 
H                   1.83319900   -4.82919800   -1.42759200 
C                   1.14458200   -5.15963000   -3.44977700 
C                  -1.24059600   -5.04217900   -3.77277400 
H                  -2.41076200   -4.65982400   -1.99623800 
H                   2.14782000   -5.29480200   -3.85382500 
C                   0.03831400   -5.22453500   -4.29383300 
H                  -2.10879800   -5.08250600   -4.42955700 
H                   0.17322400   -5.41175700   -5.35846700 
H                  -0.57266588   -3.33052631    0.10144901 
H                  -1.41254300   -4.91891900    0.28650100 
5
M3_ref_38
C                   2.11742300    2.61048700   -0.66918200 
H                   2.20026300    3.35799100   -1.47633300 
H                   1.06021541    2.65226348   -0.24334718 
H                   2.88291000    2.80057005    0.08759159 
H                   2.28115500    1.63926900   -1.14819200 
5
M3_ref_39
C                   2.11742300    2.61048700   -0.66918200 
H                   2.28115500    1.63926900   -1.14819200 
H                   1.06021541    2.65226348   -0.24334718 
H                   2.88291000    2.80057005    0.08759159 
H                   2.20026300    3.35799100   -1.47633300 
17
M3_ref_40
N                   0.77239400    2.66363700   -0.12741500 
C                   2.11742300    2.61048700   -0.66918200 
C                   3.17489200    2.87307400    0.37625000 
C                   3.29861600    2.02612800    1.48221700 
C                   4.01472400    3.98104700    0.27806300 
H                   2.64749400    1.15051200    1.56259100 
C                   4.24838300    2.28675700    2.46237800 
C                   4.96623200    4.24572400    1.26087800 
H                   3.91708700    4.64683900   -0.58249100 
H                   4.36246100    1.60247300    3.30543400 
C                   5.08290400    3.39875900    2.35666800 
H                   5.61200400    5.11884300    1.17130600 
H                   5.82705300    3.59669000    3.12745300 
H                   0.41890288    3.59571949    0.08931100 
H                   0.25468616    1.89082370    0.15798974 
H                   2.20026300    3.35799100   -1.47633300 
H                   2.28115500    1.63926900   -1.14819200 
7
M3_ref_41
N                   0.77239400    2.66363700   -0.12741500 
C                   2.11742300    2.61048700   -0.66918200 
H                   2.20026300    3.35799100   -1.47633300 
H                   0.41890288    3.59571949    0.08931100 
H                   0.25468616    1.89082370    0.15798974 
H                   2.88291000    2.80057005    0.08759159 
H                   2.28115500    1.63926900   -1.14819200 
7
M3_ref_42
N                   0.77239400    2.66363700   -0.12741500 
C                   2.11742300    2.61048700   -0.66918200 
H                   2.28115500    1.63926900   -1.14819200 
H                   0.41890288    3.59571949    0.08931100 
H                   0.25468616    1.89082370    0.15798974 
H                   2.88291000    2.80057005    0.08759159 
H                   2.20026300    3.35799100   -1.47633300 
15
M3_ref_43
C                   3.17489200    2.87307400    0.37625000 
C                   2.11742300    2.61048700   -0.66918200 
H                   2.20026300    3.35799100   -1.47633300 
C                   3.29861600    2.02612800    1.48221700 
C                   4.01472400    3.98104700    0.27806300 
H                   2.64749400    1.15051200    1.56259100 
C                   4.24838300    2.28675700    2.46237800 
C                   4.96623200    4.24572400    1.26087800 
H                   3.91708700    4.64683900   -0.58249100 
H                   4.36246100    1.60247300    3.30543400 
C                   5.08290400    3.39875900    2.35666800 
H                   5.61200400    5.11884300    1.17130600 
H                   5.82705300    3.59669000    3.12745300 
H                   1.06021541    2.65226348   -0.24334718 
H                   2.28115500    1.63926900   -1.14819200 
15
M3_ref_44
C                   3.17489200    2.87307400    0.37625000 
C                   2.11742300    2.61048700   -0.66918200 
H                   2.28115500    1.63926900   -1.14819200 
C                   3.29861600    2.02612800    1.48221700 
C                   4.01472400    3.98104700    0.27806300 
H                   2.64749400    1.15051200    1.56259100 
C                   4.24838300    2.28675700    2.46237800 
C                   4.96623200    4.24572400    1.26087800 
H                   3.91708700    4.64683900   -0.58249100 
H                   4.36246100    1.60247300    3.30543400 
C                   5.08290400    3.39875900    2.35666800 
H                   5.61200400    5.11884300    1.17130600 
H                   5.82705300    3.59669000    3.12745300 
H                   1.06021541    2.65226348   -0.24334718 
H                   2.20026300    3.35799100   -1.47633300 
5
M3_ref_45
H                   2.20026300    3.35799100   -1.47633300 
C                   2.11742300    2.61048700   -0.66918200 
H                   2.28115500    1.63926900   -1.14819200 
H                   1.06021541    2.65226348   -0.24334718 
H                   2.88291000    2.80057005    0.08759159 
4
M3_ref_46
C                   0.50676700    0.24748400   -0.02579900 
H                   1.28869500    0.08247300   -0.76533300 
H                   0.16382166    1.19753515    0.19570650 
C                  -0.10714700   -0.86663500    0.51679100 
6
M3_ref_47
C                   0.50676700    0.24748400   -0.02579900 
C                   0.03301100    1.55991600    0.28019600 
H                   1.28869500    0.08247300   -0.76533300 
C                  -0.10714700   -0.86663500    0.51679100 
C                  -1.18665073    1.80172883    0.97606718 
H                   0.61417417    2.42745285   -0.04019073 
6
M3_ref_48
C                   0.50676700    0.24748400   -0.02579900 
C                  -0.10714700   -0.86663500    0.51679100 
H                   1.28869500    0.08247300   -0.76533300 
H                   0.16382166    1.19753515    0.19570650 
H                  -0.75730400   -0.75265400    1.38707900 
H                   0.31221609   -1.83624193    0.35334768 
6
M3_ref_49
H                   1.28869500    0.08247300   -0.76533300 
C                   0.50676700    0.24748400   -0.02579900 
C                   0.03301100    1.55991600    0.28019600 
C                  -0.10714700   -0.86663500    0.51679100 
O                  -1.04226200    1.77310200    0.89368700 
H                   0.61417417    2.42745285   -0.04019073 
6
M3_ref_50
H                   1.28869500    0.08247300   -0.76533300 
C                   0.50676700    0.24748400   -0.02579900 
C                  -0.10714700   -0.86663500    0.51679100 
H                   0.16382166    1.19753515    0.19570650 
H                  -0.75730400   -0.75265400    1.38707900 
H                   0.31221609   -1.83624193    0.35334768 
8
M3_ref_51
C                   0.03301100    1.55991600    0.28019600 
C                   0.50676700    0.24748400   -0.02579900 
C                  -0.10714700   -0.86663500    0.51679100 
O                  -1.04226200    1.77310200    0.89368700 
H                   0.61417417    2.42745285   -0.04019073 
H                   1.28869500    0.08247300   -0.76533300 
H                  -0.75730400   -0.75265400    1.38707900 
H                   0.31221609   -1.83624193    0.35334768 
6
M3_ref_52
O                  -1.04226200    1.77310200    0.89368700 
C                   0.03301100    1.55991600    0.28019600 
N                   0.77239400    2.66363700   -0.12741500 
H                   0.37595634    0.60986485    0.05869050 
H                   0.41890288    3.59571949    0.08931100 
H                   1.71416851    2.62642195   -0.50675429 
6
M3_ref_53
O                  -1.04226200    1.77310200    0.89368700 
C                   0.03301100    1.55991600    0.28019600 
C                   0.50676700    0.24748400   -0.02579900 
H                   0.61417417    2.42745285   -0.04019073 
H                   1.28869500    0.08247300   -0.76533300 
C                  -0.10714700   -0.86663500    0.51679100 
8
M3_ref_54
N                   0.77239400    2.66363700   -0.12741500 
C                   0.03301100    1.55991600    0.28019600 
C                   0.50676700    0.24748400   -0.02579900 
H                   0.41890288    3.59571949    0.08931100 
H                   1.71416851    2.62642195   -0.50675429 
O                  -1.04226200    1.77310200    0.89368700 
H                   1.28869500    0.08247300   -0.76533300 
C                  -0.10714700   -0.86663500    0.51679100 
4
M3_ref_55
C                  -0.10714700   -0.86663500    0.51679100 
H                  -0.75730400   -0.75265400    1.38707900 
C                   0.50676700    0.24748400   -0.02579900 
H                   0.31221609   -1.83624193    0.35334768 
6
M3_ref_56
C                  -0.10714700   -0.86663500    0.51679100 
C                   0.47217500   -2.20608200    0.29100500 
C                   0.50676700    0.24748400   -0.02579900 
H                  -0.75730400   -0.75265400    1.38707900 
C                   1.82699766   -2.56456584    0.11023917 
H                  -0.36626215   -2.84961043    0.18408943 
6
M3_ref_57
C                   0.50676700    0.24748400   -0.02579900 
C                  -0.10714700   -0.86663500    0.51679100 
H                  -0.75730400   -0.75265400    1.38707900 
H                   1.28869500    0.08247300   -0.76533300 
H                   0.16382166    1.19753515    0.19570650 
H                   0.31221609   -1.83624193    0.35334768 
8
M3_ref_58
C                   0.50676700    0.24748400   -0.02579900 
C                  -0.10714700   -0.86663500    0.51679100 
C                   0.47217500   -2.20608200    0.29100500 
H                   1.28869500    0.08247300   -0.76533300 
H                   0.16382166    1.19753515    0.19570650 
H                  -0.75730400   -0.75265400    1.38707900 
O                   1.66660800   -2.52212700    0.13163900 
H                  -0.36626215   -2.84961043    0.18408943 
6
M3_ref_59
H                  -0.75730400   -0.75265400    1.38707900 
C                  -0.10714700   -0.86663500    0.51679100 
C                   0.47217500   -2.20608200    0.29100500 
C                   0.50676700    0.24748400   -0.02579900 
O                   1.66660800   -2.52212700    0.13163900 
H                  -0.36626215   -2.84961043    0.18408943 
6
M3_ref_60
O                   1.66660800   -2.52212700    0.13163900 
C                   0.47217500   -2.20608200    0.29100500 
N                  -0.59452400   -3.02480900    0.15498200 
H                   0.05281191   -1.23647507    0.45444832 
H                  -1.34940126   -2.44022120   -0.13337894 
H                  -0.52300249   -4.02514032   -0.02018218 
6
M3_ref_61
O                   1.66660800   -2.52212700    0.13163900 
C                   0.47217500   -2.20608200    0.29100500 
C                  -0.10714700   -0.86663500    0.51679100 
H                  -0.36626215   -2.84961043    0.18408943 
C                   0.50676700    0.24748400   -0.02579900 
H                  -0.75730400   -0.75265400    1.38707900 
8
M3_ref_62
N                  -0.59452400   -3.02480900    0.15498200 
C                   0.47217500   -2.20608200    0.29100500 
C                  -0.10714700   -0.86663500    0.51679100 
H                  -1.34940126   -2.44022120   -0.13337894 
H                  -0.52300249   -4.02514032   -0.02018218 
O                   1.66660800   -2.52212700    0.13163900 
C                   0.50676700    0.24748400   -0.02579900 
H                  -0.75730400   -0.75265400    1.38707900 
8
M3_ref_63
O                   1.66660800   -2.52212700    0.13163900 
C                   0.47217500   -2.20608200    0.29100500 
C                  -0.10714700   -0.86663500    0.51679100 
C                   0.50676700    0.24748400   -0.02579900 
H                  -0.36626215   -2.84961043    0.18408943 
H                  -0.75730400   -0.75265400    1.38707900 
H                   1.28869500    0.08247300   -0.76533300 
H                   0.16382166    1.19753515    0.19570650 
8
M3_ref_64
O                  -1.04226200    1.77310200    0.89368700 
C                   0.03301100    1.55991600    0.28019600 
C                   0.50676700    0.24748400   -0.02579900 
C                  -0.10714700   -0.86663500    0.51679100 
H                   0.61417417    2.42745285   -0.04019073 
H                   1.28869500    0.08247300   -0.76533300 
H                  -0.75730400   -0.75265400    1.38707900 
H                   0.31221609   -1.83624193    0.35334768 
10
M3_ref_65
N                   0.77239400    2.66363700   -0.12741500 
C                   0.03301100    1.55991600    0.28019600 
C                   0.50676700    0.24748400   -0.02579900 
C                  -0.10714700   -0.86663500    0.51679100 
H                   0.41890288    3.59571949    0.08931100 
H                   1.71416851    2.62642195   -0.50675429 
O                  -1.04226200    1.77310200    0.89368700 
H                   1.28869500    0.08247300   -0.76533300 
H                  -0.75730400   -0.75265400    1.38707900 
H                   0.31221609   -1.83624193    0.35334768 
10
M3_ref_66
N                  -0.59452400   -3.02480900    0.15498200 
C                   0.47217500   -2.20608200    0.29100500 
C                  -0.10714700   -0.86663500    0.51679100 
C                   0.50676700    0.24748400   -0.02579900 
H                  -1.34940126   -2.44022120   -0.13337894 
H                  -0.52300249   -4.02514032   -0.02018218 
O                   1.66660800   -2.52212700    0.13163900 
H                  -0.75730400   -0.75265400    1.38707900 
H                   1.28869500    0.08247300   -0.76533300 
H                   0.16382166    1.19753515    0.19570650 
12
M3_frag_ref_0
C                  -0.30743000   -4.75300600   -1.55742800 
C                   0.97209700   -4.91489900   -2.09055400 
H                   1.83319900   -4.82919800   -1.42759200 
C                   1.14458200   -5.15963000   -3.44977700 
H                   2.14782000   -5.29480200   -3.85382500 
C                   0.03831400   -5.22453500   -4.29383300 
H                   0.17322400   -5.41175700   -5.35846700 
C                  -1.24059600   -5.04217900   -3.77277400 
H                  -2.10879800   -5.08250600   -4.42955700 
C                  -1.41191900   -4.80854800   -2.41142900 
H                  -2.41076200   -4.65982400   -1.99623800 
H                  -0.44131127   -4.53617464   -0.49893076 
12
M3_frag_ref_1
C                  -2.95533000   -2.34884900    0.37891300 
C                  -4.15042800   -2.05890300   -0.31016100 
H                  -4.08882600   -1.74155100   -1.35443800 
C                  -5.38396500   -2.16228500    0.31453200 
H                  -6.28952300   -1.92266500   -0.24361600 
C                  -5.47255900   -2.54334700    1.65327100 
H                  -6.44046800   -2.59552100    2.14995100 
C                  -4.30167500   -2.82960900    2.35354900 
H                  -4.35211100   -3.09930800    3.40913500 
C                  -3.06584000   -2.74408900    1.72794200 
H                  -2.15066700   -2.96044300    2.28204000 
H                  -2.02680070   -2.23379456   -0.08130766 
12
M3_frag_ref_2
C                   3.17489200    2.87307400    0.37625000 
C                   3.29861600    2.02612800    1.48221700 
H                   2.64749400    1.15051200    1.56259100 
C                   4.24838300    2.28675700    2.46237800 
H                   4.36246100    1.60247300    3.30543400 
C                   5.08290400    3.39875900    2.35666800 
H                   5.82705300    3.59669000    3.12745300 
C                   4.96623200    4.24572400    1.26087800 
H                   5.61200400    5.11884300    1.17130600 
C                   4.01472400    3.98104700    0.27806300 
H                   3.91708700    4.64683900   -0.58249100 
H                   2.40940500    2.68299095   -0.38052359 
12
M3_frag_ref_3
C                  -0.51300800    4.58351300   -0.96385200 
C                  -1.84061800    4.19655800   -1.17313200 
H                  -2.29336200    3.48422400   -0.48171300 
C                  -2.56084700    4.69621600   -2.25275400 
H                  -3.59120600    4.37448500   -2.40982900 
C                  -1.95788300    5.58341200   -3.14376600 
H                  -2.52012800    5.96870400   -3.99350900 
C                  -0.63841100    5.97637700   -2.94318400 
H                  -0.16462200    6.67408500   -3.63327300 
C                   0.07634000    5.48126700   -1.85517800 
H                   1.10781200    5.79991900   -1.68644800 
H                   0.05202194    4.15736927   -0.13430615 
