2
Conf_0 frag_0
H                  -0.84847968    2.07366807    0.84708803 
H                  -0.19986417    1.24864943    0.60922607 
5
Conf_0 frag_1
C                  -3.44646592    1.93918187    2.00056366 
H                  -2.56314553    2.12011352    2.62372711 
H                  -4.23655722    2.62057623    2.31274297 
H                  -3.78896703    0.91399820    2.17654657 
H                  -3.21789342    2.12713183    0.88965886 
3
Conf_0 frag_2
O                  -3.16808901    2.16808487    0.64760016 
H                  -2.44476686    1.76851059    0.27900919 
H                  -3.35928078    2.01087223    1.57682767 
3
Conf_0 frag_3
O                  -1.77847601    1.87257490   -1.26446079 
H                  -1.95583847    1.66453688   -0.39373990 
H                  -1.87865239    2.79791178   -1.52558939 
5
Conf_0 frag_4
C                  -1.92433371    3.21987361   -1.64466635 
H                  -2.95435676    3.55825855   -1.52051693 
H                  -1.27550149    3.86533442   -1.04214888 
H                  -1.64045245    3.31356447   -2.69212659 
H                  -1.80457141    2.11362011   -1.33248337 
4
Conf_0 frag_5
B                  -2.05211806    1.55160535    0.07892296 
H                  -1.75474609    0.39818605    0.26855651 
H                  -2.97966736    2.06399785    0.55158413 
H                  -1.82467801    1.81838208   -1.03764253 
5
Conf_0 frag_6
C                  -1.64899912   -0.01197565    0.33599115 
H                  -2.09087752   -0.70697336   -0.37504057 
H                  -1.83780775   -0.35483560    1.35187007 
H                  -0.49089841    0.05749610    0.19339574 
H                  -1.92623490    1.06334122    0.15919841 
4
Conf_0 frag_7
N                  -0.17560917    0.07640956    0.15457459 
H                   0.05920352    0.13708033   -0.83061422 
H                   0.37916120   -0.63753952    0.60830611 
H                  -1.20726061    0.01452321    0.28160047 
