5
Conf_0 frag_0
C                  -0.32331300    0.00605800    2.57450600 
H                   0.55774500    0.63048000    2.73803900 
H                  -0.40716600   -0.73022100    3.37370300 
H                  -1.22344500    0.61786600    2.52843700 
H                  -0.21175150   -0.62495623    1.56840225 
5
Conf_0 frag_1
H                  -4.29445300    1.51644500   -0.00037300 
C                  -3.32439000    1.26447600    0.49761200 
H                  -2.69137200    2.17194000    0.35657900 
O                  -2.74328500    0.10354400    0.04058300 
H                  -3.56926800    1.26286700    1.59063000 
7
Conf_0 frag_2
Mg                  0.69446800   -1.35578300   -2.78674200 
O                  -0.02831500    1.43658200   -0.14436500 
P                   0.02115900   -0.03863300   -0.04471900 
O                  -0.18744300   -0.76245000    1.34917900 
O                  -0.30096600   -1.02400200   -1.15717400 
H                   1.62561498   -0.25783982   -0.00315480 
H                  -0.28075974   -0.23463179    2.19074461 
6
Conf_0 frag_3
P                   2.80292800   -0.10276700   -1.22200300 
O                   3.85518200    1.04519600   -1.01814200 
O                   2.09583600    0.07103200   -2.54137000 
H                   4.13167900    1.18681100   -0.09803700 
H                   2.02489897   -0.26704536   -0.17213744 
H                   3.58876455   -1.27042034   -1.29539854 
7
Conf_0 frag_4
P                   3.50242000   -2.64578900   -2.38225100 
O                   2.05658400   -2.80617800   -2.74833300 
O                   4.33788500   -2.31620300   -3.66661800 
O                   4.20286600   -3.89841700   -1.75404400 
H                   5.29089500   -2.18503400   -3.52889100 
H                   3.82085800   -4.21583900   -0.91866800 
H                   3.68916684   -1.63543555   -1.46193590 
3
Conf_0 frag_5
O                   1.89450800   -0.29457700    0.00381100 
H                   0.86226647   -0.15354827   -0.02292971 
H                   2.39506014   -0.18888700   -0.67162968 
3
Conf_0 frag_6
O                   3.72046400   -1.46610900   -1.30769900 
H                   3.21488882   -0.71488847   -1.26047930 
H                   3.60031870   -2.11612920   -1.89979220 
