82
ts2-T.gjf
 Fe                -0.93054000   -0.52026000    0.04911000
 N                 -2.54479000    0.55839000    0.60705000
 N                 -0.16209000   -0.38487000    1.90839000
 N                 -1.80329000   -0.81451000   -1.75302000
 N                  0.60415000   -1.72427000   -0.46749000
 C                 -3.61098000    0.94375000   -0.17111000
 C                  1.02672000   -0.89905000    2.36198000
 C                 -2.78874000    1.05856000    1.86298000
 C                 -0.74330000    0.23630000    2.98369000
 C                 -2.96330000   -0.25222000   -2.22828000
 C                  1.71067000   -2.03762000    0.28247000
 C                 -1.32061000   -1.60514000   -2.76587000
 C                  0.75762000   -2.37855000   -1.66423000
 C                 -4.54217000    1.72247000    0.60967000
 C                  1.20063000   -0.59556000    3.76415000
 C                 -4.03570000    1.78618000    1.87405000
 C                  0.09860000    0.10530000    4.15077000
 C                 -3.21646000   -0.69521000   -3.57906000
 C                  2.59592000   -2.89778000   -0.46685000
 C                 -2.20096000   -1.54180000   -3.90948000
 C                  2.00029000   -3.11626000   -1.67219000
 H                 -5.46401000    2.14482000    0.22946000
 H                  2.05477000   -0.89429000    4.35908000
 H                 -4.45439000    2.27662000    2.74407000
 H                 -0.13758000    0.50595000    5.12870000
 H                 -4.06787000   -0.39578000   -4.17747000
 H                  3.54381000   -3.27330000   -0.10330000
 H                 -2.04474000   -2.07773000   -4.83750000
 H                  2.35647000   -3.71417000   -2.50190000
 C                 -3.80345000    0.58604000   -1.50157000
 C                  1.92117000   -1.64471000    1.60043000
 C                 -0.14090000   -2.34258000   -2.72653000
 C                 -1.96622000    0.89817000    2.97241000
 H                 -4.69449000    0.95807000   -1.99832000
 H                  2.83550000   -1.97748000    2.08163000
 H                  0.11298000   -2.91971000   -3.61077000
 H                 -2.29671000    1.34730000    3.90420000
 C                 -3.27052000   -2.61766000    0.50315000
 C                 -1.49425000   -3.37599000    1.47806000
 C                 -2.47695000   -4.30465000    1.69537000
 N                 -2.00042000   -2.32893000    0.73370000
 N                 -3.60056000   -3.80464000    1.06747000
 H                 -2.48327000   -5.24639000    2.22156000
 H                 -0.46518000   -3.38564000    1.80188000
 H                 -3.96363000   -2.00677000   -0.05428000
 H                 -4.51063000   -4.24264000    1.03268000
 C                  0.08144000    1.12433000   -0.63094000
 C                 -0.45122000    2.41648000   -0.12034000
 O                 -0.24270000    2.89703000    0.98661000
 O                 -1.19143000    3.09298000   -1.04980000
 C                 -1.74968000    4.35394000   -0.63053000
 H                 -0.93763000    5.02442000   -0.32882000
 H                 -2.38768000    4.18884000    0.24365000
 C                 -2.53801000    4.91688000   -1.79993000
 H                 -2.97808000    5.88182000   -1.52424000
 H                 -1.89232000    5.06921000   -2.67126000
 H                 -3.34769000    4.23692000   -2.08520000
 C                  0.41948000    1.15020000   -2.11493000
 H                  1.03686000    2.02479000   -2.36324000
 H                  0.97560000    0.25443000   -2.40423000
 H                 -0.47756000    1.20908000   -2.73980000
 C                  4.65172000    0.51814000   -1.59632000
 C                  4.40390000    0.74407000   -0.22650000
 C                  5.24977000    0.09360000    0.69407000
 C                  6.29117000   -0.73716000    0.27215000
 C                  6.51422000   -0.94309000   -1.09146000
 C                  5.68899000   -0.31105000   -2.02629000
 H                  4.02302000    0.99758000   -2.34430000
 H                  5.10018000    0.24244000    1.76104000
 H                  6.93160000   -1.21927000    1.00733000
 H                  7.32420000   -1.58784000   -1.42322000
 H                  5.85579000   -0.46318000   -3.09011000
 Si                 2.97300000    1.85213000    0.33704000
 H                  1.47356000    1.19279000   -0.02735000
 C                  3.05050000    3.48672000   -0.63405000
 H                  3.05741000    3.32882000   -1.71858000
 H                  2.18468000    4.11379000   -0.39213000
 H                  3.95659000    4.04937000   -0.37429000
 C                  3.13499000    2.24284000    2.18426000
 H                  2.29790000    2.88034000    2.48802000
 H                  3.09980000    1.34265000    2.80580000
 H                  4.07070000    2.77552000    2.39916000
