7 

N                  -3.42994781   -0.00000383    0.00109467 
C                  -2.25854312    0.00000605   -0.00102976 
C                  -0.00390034    0.00000326   -0.00117300 
H                  -0.10139394    0.93079764   -0.53402867 
H                  -0.10236107   -0.00394720    1.07120489 
H                  -0.10140341   -0.92683252   -0.54088364 
Cl                  2.15868306   -0.00000217    0.00042440 

