7 

N                  -3.44767209   -0.00000377    0.00109878 
C                  -2.27645949    0.00000894   -0.00111945 
C                   0.06461752    0.00000285   -0.00114374 
H                  -0.09892612    0.92450678   -0.53048900 
H                  -0.09986372   -0.00390235    1.06399008 
H                  -0.09893649   -0.92059192   -0.53725877 
Cl                  2.14820216   -0.00000291    0.00044496 

