7 

N                  -3.48122990   -0.00000440    0.00116057 
C                  -2.30928280    0.00001543   -0.00128818 
C                   0.18778008    0.00000014   -0.00105177 
H                  -0.07623419    0.90954481   -0.52166576 
H                  -0.07665986   -0.00384535    1.04675371 
H                  -0.07624816   -0.90570245   -0.52831599 
Cl                  2.12866228   -0.00000351    0.00043127 

