7 

N                  -3.39220527   -0.00000308    0.00096816 
C                  -2.21956760    0.00000640   -0.00095593 
C                  -0.14732725    0.00000435   -0.00115838 
H                  -0.09958579    0.93387693   -0.53564002 
H                  -0.10043856   -0.00391898    1.07482288 
H                  -0.09958966   -0.92993297   -0.54245689 
Cl                  2.17925325   -0.00000318    0.00043222 

