7 

N                  -3.43156551   -0.00000380    0.00109056 
C                  -2.26019257    0.00000652   -0.00104052 
C                   0.00233542    0.00000325   -0.00116909 
H                  -0.10133785    0.93033144   -0.53377414 
H                  -0.10231227   -0.00393902    1.07067519 
H                  -0.10134790   -0.92637531   -0.54061429 
Cl                  2.15775223   -0.00000234    0.00042856 

