7 

N                  -3.44606710   -0.00000376    0.00109666 
C                  -2.27485238    0.00000873   -0.00111225 
C                   0.05839815    0.00000290   -0.00114620 
H                  -0.09936142    0.92517090   -0.53086948 
H                  -0.10031357   -0.00390475    1.06475422 
H                  -0.09937216   -0.92125234   -0.53764401 
Cl                  2.14918009   -0.00000288    0.00044421 

