7 

N                  -3.36826474   -0.00000276    0.00090754 
C                  -2.19461846    0.00000628   -0.00090785 
C                  -0.23427274    0.00000503   -0.00113412 
H                  -0.10006512    0.92873279   -0.53261365 
H                  -0.10078369   -0.00388850    1.06893684 
H                  -0.10007422   -0.92482693   -0.53936490 
Cl                  2.19097930   -0.00000328    0.00042498 

