12

C             2.7935180600000          -0.6508861600000          -0.0267709500000
C             1.5997524000000          -1.3726855100000          -0.0381175700000
C             0.3878597600000          -0.6951073800000          -0.0332565500000
C             0.3649035200000           0.7058692700000          -0.0081465600000
C             1.5531641600000           1.4225207900000           0.0031370900000
C             2.7705687000000           0.7405642500000          -0.0068738900000
H             3.7434235000000          -1.1775334100000          -0.0335179600000
H             1.6152705200000          -2.4597362400000          -0.0533515200000
H             1.5342513700000           2.5094482200000           0.0205634300000
H             3.7020704200000           1.2988234900000           0.0016543400000
H            -0.6130883872819          -1.1519353372381          -0.0228364426735
H            -0.6319289879067           1.1428173559470          -0.0045063037998
