7
M3_conf_0_0
N                   0.00000000    0.00000000    0.00000000 
C                   1.47500000    0.00000000    0.00000000 
N                  -0.51745000    0.00000000   -1.12192000 
N                  -1.10132000    0.00534000   -2.10394000 
H                   1.74077000    0.03529000    1.05827000 
H                   1.83812000   -0.95330000   -0.40642000 
H                   1.90546000    0.84380000   -0.54650000 
5
M3_conf_0_1
C                   0.00000000    0.00000000    0.00000000 
H                   1.09150000    0.00000000    0.00000000 
H                  -0.28607000    0.00000000   -1.13975000 
H                  -0.33623000    0.93924000    0.45891000 
H                  -0.39778000   -0.86153000    0.54359000 
5
M3_conf_0_2
C                   0.00000000    0.00000000    0.00000000 
H                   1.09800000    0.00000000    0.00000000 
H                  -0.38858000    0.00000000   -1.10899000 
H                  -0.33427000   -0.95974000    0.39871000 
H                  -0.38799000    0.83364000    0.59200000 
15
M3_conf_0_3
C                   0.00000000    0.00000000    0.00000000 
C                   1.51630000    0.00000000    0.00000000 
C                   2.22483000    0.00000000    1.20863000 
C                   2.22576000    0.06314000   -1.20469000 
C                   3.61759000    0.05386000    1.21192000 
H                   1.67833000   -0.03769000    2.14797000 
C                   3.62097000    0.11817000   -1.20440000 
H                   1.68385000    0.06547000   -2.14790000 
C                   4.31869000    0.11297000    0.00391000 
H                   4.15718000    0.04856000    2.15517000 
H                   4.16045000    0.16414000   -2.14650000 
H                   5.40452000    0.15394000    0.00618000 
H                  -0.46254000    1.06273000    0.19371000 
H                  -0.39709000   -0.61440000    0.81033000 
H                  -0.38958000   -0.39868000   -0.94610000 
7
M3_conf_0_4
N                   0.00000000    0.00000000    0.00000000 
C                   1.49510000    0.00000000    0.00000000 
H                   1.75162000    0.00000000    1.06113000 
N                  -0.51745000    0.03739000   -1.12130000 
N                  -1.10132000    0.07546000   -2.10260000 
H                   1.85822000   -0.93923000   -0.43797000 
H                   1.92556000    0.86145000   -0.51823000 
7
M3_conf_0_5
N                   0.00000000    0.00000000    0.00000000 
C                   1.49510000    0.00000000    0.00000000 
H                   1.85948000    0.00000000    1.03588000 
N                  -0.51745000   -1.03204000    0.43999000 
N                  -1.10132000   -1.93749000    0.82021000 
H                   1.76087000    0.95965000   -0.44749000 
H                   1.92556000   -0.83364000   -0.56188000 
5
M3_conf_0_6
H                   0.00000000    0.00000000    0.00000000 
C                   1.09170000    0.00000000    0.00000000 
H                   1.42373000    0.00000000    1.04670000 
H                   1.37777000   -1.02405000   -0.50035000 
H                   1.48948000    0.86662000   -0.53544000 
15
M3_conf_0_7
H                   0.00000000    0.00000000    0.00000000 
C                   1.09170000    0.00000000    0.00000000 
C                   1.62594000    0.00000000    1.41308000 
C                   0.97565000    0.73023000    2.41642000 
C                   2.81055000   -0.67737000    1.72369000 
C                   1.49616000    0.77513000    3.70859000 
H                   0.06094000    1.26773000    2.17798000 
C                   3.33482000   -0.63333000    3.01708000 
H                   3.32335000   -1.24524000    0.95047000 
C                   2.67789000    0.09240000    4.01136000 
H                   0.98094000    1.34081000    4.48026000 
H                   4.25387000   -1.16577000    3.24636000 
H                   3.08333000    0.12642000    5.01891000 
H                   1.37777000    0.96392000   -0.60819000 
H                   1.42793000   -0.88931000   -0.54946000 
15
M3_conf_0_8
H                   0.00000000    0.00000000    0.00000000 
C                   1.09810000    0.00000000    0.00000000 
C                   1.62073000    0.00000000    1.41742000 
C                   2.91086000    0.46933000    1.69688000 
C                   0.84757000   -0.52599000    2.45865000 
C                   3.41515000    0.42098000    2.99535000 
H                   3.52024000    0.86883000    0.88972000 
C                   1.35055000   -0.57659000    3.76022000 
H                  -0.15457000   -0.89441000    2.25059000 
C                   2.63478000   -0.10259000    4.03034000 
H                   4.41545000    0.79214000    3.20163000 
H                   0.73938000   -0.98478000    4.56056000 
H                   3.02731000   -0.13946000    5.04289000 
H                   1.48668000   -0.90419000   -0.64210000 
H                   1.43237000    0.88077000   -0.55165000 
4
M3_conf_0_9
C                   0.00000000    0.00000000    0.00000000 
C                   1.23610000    0.00000000    0.00000000 
H                  -1.04055000    0.00000000   -0.40005000 
H                   2.25285000    0.11878000   -0.44146000 
6
M3_conf_0_10
C                   0.00000000    0.00000000    0.00000000 
C                   1.47240000    0.00000000    0.00000000 
N                  -1.04055000    0.00000000   -0.40005000 
H                   1.82905000    0.10615000    1.00321000 
H                   1.82905000   -0.92188000   -0.40968000 
H                   1.82905000    0.81573000   -0.59354000 
7
M3_conf_0_11
C                   0.00000000    0.00000000    0.00000000 
C                   1.21040000    0.00000000    0.00000000 
C                   2.57714000    0.00000000    0.70966000 
H                  -1.01675000    0.11878000    0.44146000 
H                   3.35596000   -0.10615000   -0.01633000 
H                   2.70487000    0.92188000    1.23760000 
H                   2.62015000   -0.81573000    1.40077000 
6
M3_conf_0_12
C                   0.00000000    0.00000000    0.00000000 
C                   1.46940000    0.00000000    0.00000000 
N                  -1.01675000    0.00000000   -0.45716000 
H                   1.82605000    0.83625000   -0.56427000 
H                   1.82605000    0.07055000    1.00634000 
H                   1.82605000   -0.90679000   -0.44208000 
7
M3_conf_0_13
C                   0.00000000    0.00000000    0.00000000 
C                   1.21040000    0.00000000    0.00000000 
C                   2.56159000    0.00000000    0.73884000 
H                  -1.04055000    0.10395000    0.38631000 
H                   2.60380000   -0.83625000    1.40503000 
H                   3.35732000   -0.07055000    0.02698000 
H                   2.66242000    0.90679000    1.29782000 
5
M3_conf_0_14
C                   0.00000000    0.00000000    0.00000000 
H                   1.12010000    0.00000000    0.00000000 
H                  -0.37158000    0.00000000   -1.05105000 
H                  -0.35665000    0.87366000    0.50441000 
H                  -0.35665000   -0.87366000    0.50441000 
5
M3_conf_0_15
C                   0.00000000    0.00000000    0.00000000 
H                   1.10410000    0.00000000    0.00000000 
H                  -0.37158000    0.00000000   -1.05105000 
H                  -0.35665000   -0.87366000    0.50441000 
H                  -0.35665000    0.87366000    0.50441000 
5
M3_conf_0_16
C                   0.00000000    0.00000000    0.00000000 
H                   1.17600000    0.00000000    0.00000000 
H                  -0.37158000    0.00000000   -1.05105000 
H                  -0.35665000    0.87366000    0.50441000 
H                  -0.35665000   -0.87366000    0.50441000 
6
M3_conf_0_17
C                   0.00000000    0.00000000    0.00000000 
C                   1.54000000    0.00000000    0.00000000 
H                   1.88765000    0.00000000    1.01195000 
N                  -1.01675000    0.37896000    0.25571000 
H                   1.89665000   -0.87366000   -0.50441000 
H                   1.89665000    0.87366000   -0.50441000 
6
M3_conf_0_18
C                   0.00000000    0.00000000    0.00000000 
C                   1.54000000    0.00000000    0.00000000 
H                   1.88694000    0.00000000    1.01219000 
N                  -1.01675000    0.03197000   -0.45604000 
H                   1.89665000    0.87366000   -0.50441000 
H                   1.89665000   -0.87366000   -0.50441000 
6
M3_conf_0_19
C                   0.00000000    0.00000000    0.00000000 
C                   1.54000000    0.00000000    0.00000000 
H                   1.91857000    0.00000000    1.00079000 
N                  -1.01675000   -0.41093000    0.20033000 
H                   1.89665000   -0.87366000   -0.50441000 
H                   1.89665000    0.87366000   -0.50441000 
5
M3_conf_0_20
H                   0.00000000    0.00000000    0.00000000 
C                   1.07000000    0.00000000    0.00000000 
H                   1.41853000    0.00000000    1.01164000 
H                   1.44158000   -0.91024000   -0.52553000 
H                   1.42665000    0.87366000   -0.50441000 
5
M3_conf_0_21
H                   0.00000000    0.00000000    0.00000000 
C                   1.07000000    0.00000000    0.00000000 
H                   1.45415000    0.00000000    0.99866000 
H                   1.44158000    0.91024000   -0.52553000 
H                   1.42665000   -0.87366000   -0.50441000 
5
M3_conf_0_22
H                   0.00000000    0.00000000    0.00000000 
C                   1.07000000    0.00000000    0.00000000 
H                   1.40331000    0.00000000    1.01676000 
H                   1.44158000   -0.91024000   -0.52553000 
H                   1.42665000    0.87366000   -0.50441000 
5
M3_conf_0_23
C                   0.00000000    0.00000000    0.00000000 
H                   1.11700000    0.00000000    0.00000000 
H                  -0.37158000    0.00000000   -1.05105000 
H                  -0.35665000    0.87366000    0.50441000 
H                  -0.35665000   -0.87366000    0.50441000 
5
M3_conf_0_24
C                   0.00000000    0.00000000    0.00000000 
H                   1.09610000    0.00000000    0.00000000 
H                  -0.37158000    0.00000000   -1.05105000 
H                  -0.35665000   -0.87366000    0.50441000 
H                  -0.35665000    0.87366000    0.50441000 
5
M3_conf_0_25
C                   0.00000000    0.00000000    0.00000000 
H                   1.09960000    0.00000000    0.00000000 
H                  -0.37158000    0.00000000   -1.05105000 
H                  -0.35665000    0.87366000    0.50441000 
H                  -0.35665000   -0.87366000    0.50441000 
6
M3_conf_0_26
C                   0.00000000    0.00000000    0.00000000 
C                   1.54000000    0.00000000    0.00000000 
H                   1.92676000    0.00000000    0.99765000 
N                  -1.04055000    0.04209000   -0.39783000 
H                   1.89665000   -0.87366000   -0.50441000 
H                   1.89665000    0.87366000   -0.50441000 
6
M3_conf_0_27
C                   0.00000000    0.00000000    0.00000000 
C                   1.54000000    0.00000000    0.00000000 
H                   1.92711000    0.00000000    0.99752000 
N                  -1.04055000   -0.36558000    0.16246000 
H                   1.89665000    0.87366000   -0.50441000 
H                   1.89665000   -0.87366000   -0.50441000 
6
M3_conf_0_28
C                   0.00000000    0.00000000    0.00000000 
C                   1.54000000    0.00000000    0.00000000 
H                   1.88482000    0.00000000    1.01291000 
N                  -1.04055000    0.32349000    0.23537000 
H                   1.89665000   -0.87366000   -0.50441000 
H                   1.89665000    0.87366000   -0.50441000 
5
M3_conf_0_29
H                   0.00000000    0.00000000    0.00000000 
C                   1.07000000    0.00000000    0.00000000 
H                   1.43280000    0.00000000    1.00662000 
H                   1.44158000   -0.91024000   -0.52553000 
H                   1.42665000    0.87366000   -0.50441000 
5
M3_conf_0_30
H                   0.00000000    0.00000000    0.00000000 
C                   1.07000000    0.00000000    0.00000000 
H                   1.43069000    0.00000000    1.00737000 
H                   1.44158000    0.91024000   -0.52553000 
H                   1.42665000   -0.87366000   -0.50441000 
5
M3_conf_0_31
H                   0.00000000    0.00000000    0.00000000 
C                   1.07000000    0.00000000    0.00000000 
H                   1.36439000    0.00000000    1.02870000 
H                   1.44158000   -0.91024000   -0.52553000 
H                   1.42665000    0.87366000   -0.50441000 
4
M3_conf_0_32
N                   0.00000000    0.00000000    0.00000000 
N                   1.25640000    0.00000000    0.00000000 
N                   2.39268000    0.00000000    0.11903000 
H                  -0.43842000   -0.04262000   -0.94961000 
4
M3_conf_0_33
N                   0.00000000    0.00000000    0.00000000 
N                   1.16670000    0.00000000    0.00000000 
N                  -1.22878000    0.00000000   -0.12872000 
H                  -1.76374000    0.04262000    0.77005000 
4
M3_conf_0_34
N                   0.00000000    0.00000000    0.00000000 
N                   1.23550000    0.00000000    0.00000000 
N                   2.13371000    0.00000000    0.70606000 
H                  -0.43842000   -0.04262000   -0.94961000 
12
M3_frag_conf_0_0
C                  -2.85566400    0.13658400   -0.39806900 
C                  -2.46230400    0.60515300    0.86390500 
C                  -4.08173600   -0.52446900   -0.52546500 
C                  -3.28548300    0.41331800    1.97238700 
H                  -1.50802500    1.11487700    0.96491100 
C                  -4.90811100   -0.71458200    0.58459700 
H                  -4.39373700   -0.89314400   -1.50055600 
C                  -4.51062300   -0.24607300    1.83658700 
H                  -2.97220600    0.78096800    2.94635300 
H                  -5.85845600   -1.22944700    0.46957200 
H                  -5.15048700   -0.39318400    2.70282100 
H                  -2.20692895    0.27990402   -1.27181967 
