7
M3_ref_0
N                   2.23400200   -0.78778000  -20.10684500 
C                   1.17704800   -0.98958900  -19.06889200 
N                   2.38765400    0.38371000  -20.46803700 
N                   2.61107400    1.42613900  -20.87893800 
H                   1.16533800   -2.06934300  -18.90794900 
H                   1.49308700   -0.51321900  -18.13130900 
H                   0.19436117   -0.62280175  -19.37833010 
5
M3_ref_1
C                   1.17704800   -0.98958900  -19.06889200 
H                   1.16533800   -2.06934300  -18.90794900 
H                   2.00782547   -0.83096491  -19.88473448 
H                   1.49308700   -0.51321900  -18.13130900 
H                   0.19436117   -0.62280175  -19.37833010 
5
M3_ref_2
C                   1.17704800   -0.98958900  -19.06889200 
H                   1.49308700   -0.51321900  -18.13130900 
H                   2.00782547   -0.83096491  -19.88473448 
H                   1.16533800   -2.06934300  -18.90794900 
H                   0.19436117   -0.62280175  -19.37833010 
15
M3_ref_3
C                   1.17704800   -0.98958900  -19.06889200 
C                  -0.18046800   -0.48289700  -19.49636000 
C                  -0.98562800   -1.24790700  -20.35030900 
C                  -0.62371300    0.78269300  -19.09580000 
C                  -2.21518100   -0.75943800  -20.78871700 
H                  -0.64118400   -2.22737200  -20.67365300 
C                  -1.85460000    1.27493300  -19.53440600 
H                  -0.00423600    1.38445900  -18.43445700 
C                  -2.65218800    0.50414100  -20.38094100 
H                  -2.83371100   -1.36325400  -21.44724100 
H                  -2.18884100    2.25796800  -19.21419300 
H                  -3.61118200    0.88465300  -20.72190400 
H                   2.00782547   -0.83096491  -19.88473448 
H                   1.16533800   -2.06934300  -18.90794900 
H                   1.49308700   -0.51321900  -18.13130900 
7
M3_ref_4
N                   2.23400200   -0.78778000  -20.10684500 
C                   1.17704800   -0.98958900  -19.06889200 
H                   1.16533800   -2.06934300  -18.90794900 
N                   2.38765400    0.38371000  -20.46803700 
N                   2.61107400    1.42613900  -20.87893800 
H                   1.49308700   -0.51321900  -18.13130900 
H                   0.19436117   -0.62280175  -19.37833010 
7
M3_ref_5
N                   2.23400200   -0.78778000  -20.10684500 
C                   1.17704800   -0.98958900  -19.06889200 
H                   1.49308700   -0.51321900  -18.13130900 
N                   2.38765400    0.38371000  -20.46803700 
N                   2.61107400    1.42613900  -20.87893800 
H                   1.16533800   -2.06934300  -18.90794900 
H                   0.19436117   -0.62280175  -19.37833010 
5
M3_ref_6
H                   1.16533800   -2.06934300  -18.90794900 
C                   1.17704800   -0.98958900  -19.06889200 
H                   1.49308700   -0.51321900  -18.13130900 
H                   2.00782547   -0.83096491  -19.88473448 
H                   0.19436117   -0.62280175  -19.37833010 
15
M3_ref_7
H                   1.16533800   -2.06934300  -18.90794900 
C                   1.17704800   -0.98958900  -19.06889200 
C                  -0.18046800   -0.48289700  -19.49636000 
C                  -0.98562800   -1.24790700  -20.35030900 
C                  -0.62371300    0.78269300  -19.09580000 
C                  -2.21518100   -0.75943800  -20.78871700 
H                  -0.64118400   -2.22737200  -20.67365300 
C                  -1.85460000    1.27493300  -19.53440600 
H                  -0.00423600    1.38445900  -18.43445700 
C                  -2.65218800    0.50414100  -20.38094100 
H                  -2.83371100   -1.36325400  -21.44724100 
H                  -2.18884100    2.25796800  -19.21419300 
H                  -3.61118200    0.88465300  -20.72190400 
H                   2.00782547   -0.83096491  -19.88473448 
H                   1.49308700   -0.51321900  -18.13130900 
15
M3_ref_8
H                   1.49308700   -0.51321900  -18.13130900 
C                   1.17704800   -0.98958900  -19.06889200 
C                  -0.18046800   -0.48289700  -19.49636000 
C                  -0.98562800   -1.24790700  -20.35030900 
C                  -0.62371300    0.78269300  -19.09580000 
C                  -2.21518100   -0.75943800  -20.78871700 
H                  -0.64118400   -2.22737200  -20.67365300 
C                  -1.85460000    1.27493300  -19.53440600 
H                  -0.00423600    1.38445900  -18.43445700 
C                  -2.65218800    0.50414100  -20.38094100 
H                  -2.83371100   -1.36325400  -21.44724100 
H                  -2.18884100    2.25796800  -19.21419300 
H                  -3.61118200    0.88465300  -20.72190400 
H                   2.00782547   -0.83096491  -19.88473448 
H                   1.16533800   -2.06934300  -18.90794900 
4
M3_ref_9
C                  -0.99263600   -1.49660400    0.05981100 
C                   0.16758412   -1.16459583    0.15372299 
H                  -2.09387868   -1.40099599   -0.08464663 
H                   1.01358957   -0.44956108    0.27919986 
6
M3_ref_10
C                  -0.99263600   -1.49660400    0.05981100 
C                  -2.51392897   -1.36452794   -0.13974753 
N                   0.07588148   -1.19083742    0.14630028 
H                  -2.95568005   -2.33863520   -0.16926071 
H                  -2.93306292   -0.80726481    0.67184630 
H                  -2.71004575   -0.85591670   -1.06048246 
7
M3_ref_11
C                   0.16758412   -1.16459583    0.15372299 
C                  -0.99263600   -1.49660400    0.05981100 
C                  -2.51392897   -1.36452794   -0.13974753 
H                   1.01358957   -0.44956108    0.27919986 
H                  -2.95568005   -2.33863520   -0.16926071 
H                  -2.93306292   -0.80726481    0.67184630 
H                  -2.71004575   -0.85591670   -1.06048246 
6
M3_ref_12
C                   0.16758412   -1.16459583    0.15372299 
C                   1.33628395   -0.17682324    0.32706088 
N                  -0.90093336   -1.47036241    0.06723371 
H                   1.20190657    0.37959321    1.23107606 
H                   2.25740426   -0.71911549    0.37560449 
H                   1.36155938    0.49536182   -0.50506195 
7
M3_ref_13
C                  -0.99263600   -1.49660400    0.05981100 
C                   0.16758412   -1.16459583    0.15372299 
C                   1.33628395   -0.17682324    0.32706088 
H                  -2.09387868   -1.40099599   -0.08464663 
H                   1.20190657    0.37959321    1.23107606 
H                   2.25740426   -0.71911549    0.37560449 
H                   1.36155938    0.49536182   -0.50506195 
5
M3_ref_14
C                   1.33628395   -0.17682324    0.32706088 
H                   1.20190657    0.37959321    1.23107606 
H                   0.49027850   -0.89185799    0.20158401 
H                   2.25740426   -0.71911549    0.37560449 
H                   1.36155938    0.49536182   -0.50506195 
5
M3_ref_15
C                   1.33628395   -0.17682324    0.32706088 
H                   2.25740426   -0.71911549    0.37560449 
H                   0.49027850   -0.89185799    0.20158401 
H                   1.20190657    0.37959321    1.23107606 
H                   1.36155938    0.49536182   -0.50506195 
5
M3_ref_16
C                   1.33628395   -0.17682324    0.32706088 
H                   1.36155938    0.49536182   -0.50506195 
H                   0.49027850   -0.89185799    0.20158401 
H                   1.20190657    0.37959321    1.23107606 
H                   2.25740426   -0.71911549    0.37560449 
6
M3_ref_17
C                   0.16758412   -1.16459583    0.15372299 
C                   1.33628395   -0.17682324    0.32706088 
H                   1.20190657    0.37959321    1.23107606 
N                  -0.90093336   -1.47036241    0.06723371 
H                   2.25740426   -0.71911549    0.37560449 
H                   1.36155938    0.49536182   -0.50506195 
6
M3_ref_18
C                   0.16758412   -1.16459583    0.15372299 
C                   1.33628395   -0.17682324    0.32706088 
H                   2.25740426   -0.71911549    0.37560449 
N                  -0.90093336   -1.47036241    0.06723371 
H                   1.20190657    0.37959321    1.23107606 
H                   1.36155938    0.49536182   -0.50506195 
6
M3_ref_19
C                   0.16758412   -1.16459583    0.15372299 
C                   1.33628395   -0.17682324    0.32706088 
H                   1.36155938    0.49536182   -0.50506195 
N                  -0.90093336   -1.47036241    0.06723371 
H                   1.20190657    0.37959321    1.23107606 
H                   2.25740426   -0.71911549    0.37560449 
5
M3_ref_20
H                   1.20190657    0.37959321    1.23107606 
C                   1.33628395   -0.17682324    0.32706088 
H                   2.25740426   -0.71911549    0.37560449 
H                   0.49027850   -0.89185799    0.20158401 
H                   1.36155938    0.49536182   -0.50506195 
5
M3_ref_21
H                   1.20190657    0.37959321    1.23107606 
C                   1.33628395   -0.17682324    0.32706088 
H                   1.36155938    0.49536182   -0.50506195 
H                   0.49027850   -0.89185799    0.20158401 
H                   2.25740426   -0.71911549    0.37560449 
5
M3_ref_22
H                   2.25740426   -0.71911549    0.37560449 
C                   1.33628395   -0.17682324    0.32706088 
H                   1.36155938    0.49536182   -0.50506195 
H                   0.49027850   -0.89185799    0.20158401 
H                   1.20190657    0.37959321    1.23107606 
5
M3_ref_23
C                  -2.51392897   -1.36452794   -0.13974753 
H                  -2.95568005   -2.33863520   -0.16926071 
H                  -1.41268629   -1.46013595    0.00471010 
H                  -2.93306292   -0.80726481    0.67184630 
H                  -2.71004575   -0.85591670   -1.06048246 
5
M3_ref_24
C                  -2.51392897   -1.36452794   -0.13974753 
H                  -2.93306292   -0.80726481    0.67184630 
H                  -1.41268629   -1.46013595    0.00471010 
H                  -2.95568005   -2.33863520   -0.16926071 
H                  -2.71004575   -0.85591670   -1.06048246 
5
M3_ref_25
C                  -2.51392897   -1.36452794   -0.13974753 
H                  -2.71004575   -0.85591670   -1.06048246 
H                  -1.41268629   -1.46013595    0.00471010 
H                  -2.95568005   -2.33863520   -0.16926071 
H                  -2.93306292   -0.80726481    0.67184630 
6
M3_ref_26
C                  -0.99263600   -1.49660400    0.05981100 
C                  -2.51392897   -1.36452794   -0.13974753 
H                  -2.95568005   -2.33863520   -0.16926071 
N                   0.07588148   -1.19083742    0.14630028 
H                  -2.93306292   -0.80726481    0.67184630 
H                  -2.71004575   -0.85591670   -1.06048246 
6
M3_ref_27
C                  -0.99263600   -1.49660400    0.05981100 
C                  -2.51392897   -1.36452794   -0.13974753 
H                  -2.93306292   -0.80726481    0.67184630 
N                   0.07588148   -1.19083742    0.14630028 
H                  -2.95568005   -2.33863520   -0.16926071 
H                  -2.71004575   -0.85591670   -1.06048246 
6
M3_ref_28
C                  -0.99263600   -1.49660400    0.05981100 
C                  -2.51392897   -1.36452794   -0.13974753 
H                  -2.71004575   -0.85591670   -1.06048246 
N                   0.07588148   -1.19083742    0.14630028 
H                  -2.95568005   -2.33863520   -0.16926071 
H                  -2.93306292   -0.80726481    0.67184630 
5
M3_ref_29
H                  -2.95568005   -2.33863520   -0.16926071 
C                  -2.51392897   -1.36452794   -0.13974753 
H                  -2.93306292   -0.80726481    0.67184630 
H                  -1.41268629   -1.46013595    0.00471010 
H                  -2.71004575   -0.85591670   -1.06048246 
5
M3_ref_30
H                  -2.95568005   -2.33863520   -0.16926071 
C                  -2.51392897   -1.36452794   -0.13974753 
H                  -2.71004575   -0.85591670   -1.06048246 
H                  -1.41268629   -1.46013595    0.00471010 
H                  -2.93306292   -0.80726481    0.67184630 
5
M3_ref_31
H                  -2.93306292   -0.80726481    0.67184630 
C                  -2.51392897   -1.36452794   -0.13974753 
H                  -2.71004575   -0.85591670   -1.06048246 
H                  -1.41268629   -1.46013595    0.00471010 
H                  -2.95568005   -2.33863520   -0.16926071 
4
M3_ref_32
N                   2.23400200   -0.78778000  -20.10684500 
N                   2.38765400    0.38371000  -20.46803700 
N                   2.61107400    1.42613900  -20.87893800 
H                   1.49393444   -0.92908444  -19.38008173 
4
M3_ref_33
N                   2.38765400    0.38371000  -20.46803700 
N                   2.61107400    1.42613900  -20.87893800 
N                   2.23400200   -0.78778000  -20.10684500 
H                   1.49393444   -0.92908444  -19.38008173 
4
M3_ref_34
N                   2.23400200   -0.78778000  -20.10684500 
N                   2.38765400    0.38371000  -20.46803700 
N                   2.61107400    1.42613900  -20.87893800 
H                   1.49393444   -0.92908444  -19.38008173 
12
M3_frag_ref_0
C                  -0.18046800   -0.48289700  -19.49636000 
C                  -0.98562800   -1.24790700  -20.35030900 
C                  -0.62371300    0.78269300  -19.09580000 
C                  -2.21518100   -0.75943800  -20.78871700 
H                  -0.64118400   -2.22737200  -20.67365300 
C                  -1.85460000    1.27493300  -19.53440600 
H                  -0.00423600    1.38445900  -18.43445700 
C                  -2.65218800    0.50414100  -20.38094100 
H                  -2.83371100   -1.36325400  -21.44724100 
H                  -2.18884100    2.25796800  -19.21419300 
H                  -3.61118200    0.88465300  -20.72190400 
H                   0.80221883   -0.84968425  -19.18692190 
