5

H             0.0000000000000           0.0000000000000           0.0000000000000
C             1.0988000000000           0.0000000000000           0.0000000000000
H             1.4458200000000           0.0000000000000           1.0425600000000
H             1.5043600000000          -0.8522400000000          -0.5408500000000
H             1.5043600000000           0.8522400000000          -0.5408500000000
