7 

N                  -3.57115624   -0.00000650    0.00137842 
C                  -2.39685853   -0.00000591   -0.00159844 
C                   0.33257252    0.00001767   -0.00090486 
H                  -0.00202248    0.89478551   -0.51370862 
H                  -0.00363989   -0.00359599    1.02982902 
H                  -0.00203185   -0.89111408   -0.51998816 
Cl                  2.13865580   -0.00000361    0.00041854 

