7 

N                  -3.49931401   -0.00000506    0.00120178 
C                  -2.32669486    0.00001854   -0.00139743 
C                   0.24147791   -0.00000054   -0.00095935 
H                  -0.05650962    0.90287770   -0.51771058 
H                  -0.05674822   -0.00379039    1.03916953 
H                  -0.05650893   -0.89909090   -0.52426889 
Cl                  2.12174116   -0.00000404    0.00040850 

