7 

N                  -3.42508838   -0.00000386    0.00109655 
C                  -2.25357256    0.00000513   -0.00100442 
C                  -0.02261075    0.00000331   -0.00118095 
H                  -0.10143236    0.93203804   -0.53470655 
H                  -0.10237863   -0.00396309    1.07262256 
H                  -0.10144008   -0.92805545   -0.54159115 
Cl                  2.16145489   -0.00000190    0.00041675 

