7 

N                  -3.47411616   -0.00000419    0.00114554 
C                  -2.30242360    0.00001366   -0.00124670 
C                   0.16341806    0.00000090   -0.00108115 
H                  -0.08312090    0.91263362   -0.52350957 
H                  -0.08364453   -0.00386265    1.05030237 
H                  -0.08313387   -0.90877168   -0.53019213 
Cl                  2.13241785   -0.00000331    0.00043806 

