7 

N                  -3.51738279   -0.00000576    0.00124607 
C                  -2.34416355    0.00001739   -0.00150341 
C                   0.28037528    0.00000125   -0.00085446 
H                  -0.03771554    0.89849240   -0.51521339 
H                  -0.03804818   -0.00373571    1.03426723 
H                  -0.03769407   -0.89475694   -0.52168597 
Cl                  2.12000017   -0.00000409    0.00038601 

