7 

N                  -3.57877851   -0.00000639    0.00139659 
C                  -2.40437021   -0.00001024   -0.00157914 
C                   0.33685833    0.00002132   -0.00097018 
H                   0.00170633    0.89470085   -0.51376826 
H                  -0.00002664   -0.00358709    1.02964169 
H                   0.00169600   -0.89102835   -0.52003430 
Cl                  2.14249657   -0.00000370    0.00043549 

