7 

N                  -3.57496738   -0.00000645    0.00138751 
C                  -2.40061358   -0.00000810   -0.00158983 
C                   0.33474315    0.00001952   -0.00093610 
H                  -0.00014391    0.89473948   -0.51373577 
H                  -0.00182355   -0.00359118    1.02973165 
H                  -0.00015402   -0.89106804   -0.52000806 
Cl                  2.14056507   -0.00000366    0.00042681 

