7 

N                  -3.37350572   -0.00000282    0.00092032 
C                  -2.20006899    0.00000627   -0.00091885 
C                  -0.21569495    0.00000490   -0.00113865 
H                  -0.09948795    0.93022137   -0.53348362 
H                  -0.10023208   -0.00389630    1.07063814 
H                  -0.09949467   -0.92630651   -0.54025074 
Cl                  2.18852392   -0.00000326    0.00042675 

