7 

N                  -3.64731338   -0.00000338    0.00154577 
C                  -2.47209702   -0.00004715   -0.00068509 
C                   0.37226037    0.00004708   -0.00209912 
H                   0.03448493    0.89459871   -0.51497494 
H                   0.03179016   -0.00357419    1.02805416 
H                   0.03444457   -0.89085531   -0.52125131 
Cl                  2.17822771   -0.00000350    0.00057197 

