11

C             4.6486156800000           1.7395695200000          13.3293942500000
C             3.7922066800000           2.0187498500000          12.2693082000000
H             2.9647683500000           1.3585208000000          12.0360698700000
C             4.0093626200000           3.1802567800000          11.5379053500000
H             3.3306484400000           3.4514472500000          10.7402341900000
C             5.0744610400000           4.0059881800000          11.8878135300000
H             5.2218061800000           4.9423946900000          11.3655445800000
N             5.9185519200000           3.7447595100000          12.8999046100000
C             5.6849641600000           2.6412094300000          13.6060457500000
H             6.3296543300000           2.4958622800000          14.4690700100000
H             4.4576311427268           0.9189084385051          13.9880024473277
