9
M1_conf_0_0
C                   2.31905943    5.66742096    0.58393274 
C                   2.61709094    4.37743703    0.92299447 
H                   0.38161508    6.53748904    0.34795559 
H                  -0.57485148    4.21020624    0.89952507 
C                   0.47438956    4.48436088    0.85846586 
N                   0.94225125    5.72074943    0.54547494 
N                   1.46358413    3.65087912    1.08766751 
H                   3.59182271    3.92412218    1.05632976 
H                   2.93574362    6.52965025    0.37115070 
2
M1_conf_0_1
O                  -2.41811659    0.48066556    1.67589209 
H                  -1.68232119    0.88236355    1.52805165 
4
M1_conf_0_2
C                  -1.34679195    1.06554140    1.46063509 
O                  -1.10570592    2.10235827    0.79475155 
H                  -0.43644435    0.58380283    1.89969516 
H                  -2.22644590    0.58530569    1.63738046 
5
M1_conf_0_3
H                   0.25341263   -0.48655583    0.84502751 
C                  -0.08920774    0.40005185    2.06716716 
H                  -0.99955535    0.88179042    1.62810709 
H                  -0.18483811   -0.42046074    2.75386949 
H                   0.79857406    0.99435142    2.16750879 
5
M1_conf_0_4
C                  -0.22131468   -0.73343130    3.01580041 
H                  -0.94600822   -1.46249082    2.63730955 
H                   0.74930496   -1.21141933    3.18964965 
H                  -0.61232520   -0.35197127    3.97028964 
H                  -0.12568432    0.08708128    2.32909808 
3
M1_conf_0_5
O                   0.99201575    1.12384530    2.18937256 
H                   0.94913039    1.96682598    1.63992532 
H                   0.24942172    0.62673744    2.10544079 
15
M1_conf_0_6
C                  -4.01855181   -0.92194808   -1.18384463 
C                  -4.70013851   -1.11714208    0.20097934 
O                  -5.53687177   -2.23148574    0.23522209 
C                  -5.46364662    0.21154947    0.37251133 
O                  -6.78813168    0.06269867   -0.12016369 
C                  -4.65296287    1.15113296   -0.48346205 
O                  -4.37590537    0.34449453   -1.65096011 
H                  -3.92972177   -1.20360350    0.97819034 
H                  -6.43770402   -1.88330290    0.10508864 
H                  -5.53601397    0.52079714    1.41928437 
H                  -6.73100189    0.10578119   -1.08813100 
H                  -5.21212162    2.03001158   -0.82131036 
H                  -4.36273491   -1.68114079   -1.90032865 
H                  -3.72490587    1.44700759    0.03220311 
H                  -2.86191641   -1.00298549   -1.08519030 
6
M1_conf_0_7
N                  -2.54702609   -1.02504767   -1.05833197 
C                  -1.72929952   -0.01435503   -1.44367322 
H                  -2.20291957    0.75682021   -2.04591608 
H                  -3.57737221   -0.95285847   -1.14621455 
H                  -2.17887267   -1.80298082   -0.61462216 
H                  -0.76896506   -0.01633939   -1.20929478 
19
M1_conf_0_8
H                   4.49464451   -1.24910389   -2.32238147 
C                   4.75330966   -1.49554822   -1.30000629 
N                   3.90783026   -1.57248031   -0.29231627 
Ni                  2.00457491   -1.33847286   -0.34676907 
C                  -0.12472233   -3.40621071    0.50816060 
O                  -0.75265278   -4.38308756    0.85657313 
S                   1.65829963   -3.25938230    0.60137177 
C                  -0.40266182   -0.01709629   -1.11989511 
C                   0.15910721   -1.02859411   -0.22509256 
C                  -0.72235092   -2.17947963   -0.05956327 
C                  -2.02123459   -2.13608076   -0.42463191 
C                   0.52567088    0.98888765   -1.53918135 
S                   2.18298768    0.56306208   -1.47284176 
H                  -2.69586934   -2.98082290   -0.28143010 
H                   5.74093006   -1.70975130   -0.97287154 
H                   4.42728191   -1.81043471    0.48452619 
H                  -1.36299628   -0.01511193   -1.35427355 
H                  -2.43451249   -1.26279653   -0.92272713 
H                   0.19115244    1.95180764   -1.80495283 
6
M1_conf_0_9
C                   5.96022031   -2.03559091    0.46668939 
C                   4.64970375   -1.91232341    0.81715912 
H                   4.17914578   -2.05159532    1.78174020 
H                   6.84214329   -2.28739504    1.03756680 
H                   5.99919566   -1.82531449   -0.59481810 
H                   4.06658302   -1.64520299   -0.05490074 
4
M1_conf_0_10
H                   6.83344201   -1.78434953   -1.46804325 
N                   6.00980658   -1.76806741   -0.88381015 
H                   5.97508682   -1.95538442    0.06179477 
H                   5.13002126   -1.57725247   -1.17522611 
7
M1_conf_0_11
C                   1.01690674    3.25994751   -2.27755332 
N                   0.10008086    2.21395955   -1.87730827 
H                   1.51419322    2.98333058   -3.21434336 
H                   1.78701020    3.42792738   -1.51007621 
H                  -0.71831477    2.49576058   -1.33575037 
H                   0.45086129    4.18219334   -2.43789255 
H                   0.39807431    1.35617768   -1.64055552 
9
M1_conf_0_12
C                   5.96022031   -2.03559091    0.46668939 
C                   4.64970375   -1.91232341    0.81715912 
H                   6.83344201   -1.78434953   -1.46804325 
H                   4.49464451   -1.24910389   -2.32238147 
C                   4.75330966   -1.49554822   -1.30000629 
N                   6.00980658   -1.76806741   -0.88381015 
N                   3.90783026   -1.57248031   -0.29231627 
H                   4.17914578   -2.05159532    1.78174020 
H                   6.84214329   -2.28739504    1.03756680 
