9
M1_ref_0
C                  -2.95713330    6.34628385    0.63295290 
C                  -1.79554786    5.71394585    0.97321643 
H                  -4.70376374    5.47501690   -0.23797455 
H                  -3.44213233    3.23510901   -0.20196539 
C                  -3.06434545    4.19412810    0.14624611 
N                  -3.75995411    5.35985098    0.10305494 
N                  -1.86941243    4.37673199    0.66644973 
H                  -0.90892975    6.14074265    1.42665846 
H                  -3.28391006    7.37356396    0.71688178 
2
M1_ref_1
O                  -3.44737273   -0.10148926    1.18377555 
H                  -2.86701623    0.46385144    0.91394224 
4
M1_ref_2
C                  -2.60236851    0.72165181    0.79089586 
O                  -2.60585122    1.28135402   -0.35814931 
H                  -1.77207231    0.94320764    1.50419371 
H                  -3.29619302    0.04577891    1.11348544 
5
M1_ref_3
H                  -0.95808929    0.05485538    1.94521009 
C                  -1.45536995    1.02771634    1.77626904 
H                  -2.28566615    0.80616051    1.06297119 
H                  -1.86005132    1.38888438    2.73453960 
H                  -0.63384761    1.72734502    1.36558252 
5
M1_ref_4
C                  -2.01441014    1.52664579    3.10005560 
H                  -2.75738578    0.82631880    3.49480145 
H                  -1.20443517    1.65342534    3.82804117 
H                  -2.50063229    2.50341227    2.96086775 
H                  -1.60972877    1.16547775    2.14178504 
3
M1_ref_5
O                  -0.45484341    1.87978941    1.27609668 
H                  -0.86763440    2.75487425    1.10759475 
H                  -1.14201404    1.29457796    1.61961956 
15
M1_ref_6
C                  -2.49154762   -2.87463137   -0.98065175 
C                  -3.34214329   -3.01051842    0.30629324 
O                  -3.28106322   -4.28896344    0.85543243 
C                  -4.73195448   -2.62403369   -0.21523296 
O                  -5.36939623   -3.78581739   -0.73513587 
C                  -4.39955563   -1.61194972   -1.28057122 
O                  -3.21420264   -2.16454494   -1.91752135 
H                  -3.01127070   -2.26703113    1.04415940 
H                  -4.02202521   -4.77710778    0.45195139 
H                  -5.37004162   -2.21855782    0.57553027 
H                  -5.05977724   -3.90821591   -1.64553853 
H                  -5.16575708   -1.52952917   -2.05912268 
H                  -2.21653732   -3.86519599   -1.37461570 
H                  -4.17553842   -0.63314291   -0.83395329 
H                  -1.46229741   -2.34733749   -0.75125383 
6
M1_ref_7
N                  -1.18208731   -2.20378340   -0.68880097 
C                  -0.94047754   -0.93855427   -1.08162042 
H                  -1.74657573   -0.44757583   -1.61884454 
H                  -2.09895701   -2.67350377   -0.89315168 
H                  -0.53916485   -2.69746774   -0.19249728 
H                  -0.05270911   -0.51802516   -0.88617107 
19
M1_ref_8
H                   5.14272523    0.55814392   -2.31026714 
C                   5.53490605    0.48410969   -1.30375240 
N                   4.86057643    0.08372553   -0.24331582 
Ni                  3.03620943   -0.49489045   -0.18380487 
C                   2.00341943   -3.12198699    1.02013459 
O                   1.81643650   -4.20752981    1.52026736 
S                   3.57141853   -2.28198584    0.92974257 
C                   0.28591506   -0.35762149   -0.81162024 
C                   1.29891948   -1.06439394   -0.13951827 
C                   0.93735102   -2.33263657    0.34167035 
C                  -0.26387457   -2.90885638    0.02001292 
C                   0.65743355    0.98621446   -1.25790105 
S                   2.34361013    1.30113897   -1.28410247 
H                  -0.53713841   -3.91999939    0.32397277 
H                   6.53121002    0.73068963   -1.03508955 
H                   5.46995721    0.12516988    0.50340222 
H                  -0.60185337   -0.77815060   -1.00706959 
H                  -0.98559988   -2.35466126   -0.53712259 
H                  -0.06328606    1.67780326   -1.50605727 
6
M1_ref_9
C                   6.94370639    0.58739645    0.39184552 
C                   5.73088542    0.14291576    0.82313629 
H                   5.41842306   -0.14983350    1.81696575 
H                   7.87367449    0.76947945    0.91037270 
H                   6.83267779    0.75279186   -0.67225025 
H                   5.04681298    0.09639159   -0.01510680 
4
M1_ref_10
H                   7.51833746    1.12463847   -1.59543325 
N                   6.80245061    0.79782023   -0.96194694 
H                   6.90135635    0.65048381   -0.01403635 
H                   5.91492985    0.57816356   -1.20127536 
7
M1_ref_11
C                   0.07093903    3.24051782   -1.88211603 
N                  -0.25949968    1.86608611   -1.57361701 
H                   0.76638584    3.28567869   -2.72805378 
H                   0.53878912    3.72195182   -1.01114636 
H                  -1.21419854    1.69403438   -1.14712116 
H                  -0.85062764    3.77360336   -2.12847730 
H                   0.38252688    1.25000966   -1.35255617 
9
M1_ref_12
C                   6.94370639    0.58739645    0.39184552 
C                   5.73088542    0.14291576    0.82313629 
H                   7.51833746    1.12463847   -1.59543325 
H                   5.14272523    0.55814392   -2.31026714 
C                   5.53490605    0.48410969   -1.30375240 
N                   6.80245061    0.79782023   -0.96194694 
N                   4.86057643    0.08372553   -0.24331582 
H                   5.41842306   -0.14983350    1.81696575 
H                   7.87367449    0.76947945    0.91037270 
