7
M3_ref_0
N                   2.23400200   -0.78778000   -0.10684500 
C                   1.17704800   -0.98958900    0.93110800 
N                   2.38765400    0.38371000   -0.46803700 
N                   2.61107400    1.42613900   -0.87893800 
H                   1.16533800   -2.06934300    1.09205100 
H                   1.49308700   -0.51321900    1.86869100 
H                   0.19436117   -0.62280175    0.62166990 
5
M3_ref_1
C                   1.17704800   -0.98958900    0.93110800 
H                   1.16533800   -2.06934300    1.09205100 
H                   2.00782547   -0.83096491    0.11526552 
H                   1.49308700   -0.51321900    1.86869100 
H                   0.19436117   -0.62280175    0.62166990 
5
M3_ref_2
C                   1.17704800   -0.98958900    0.93110800 
H                   1.49308700   -0.51321900    1.86869100 
H                   2.00782547   -0.83096491    0.11526552 
H                   1.16533800   -2.06934300    1.09205100 
H                   0.19436117   -0.62280175    0.62166990 
15
M3_ref_3
C                   1.17704800   -0.98958900    0.93110800 
C                  -0.18046800   -0.48289700    0.50364000 
C                  -0.98562800   -1.24790700   -0.35030900 
C                  -0.62371300    0.78269300    0.90420000 
C                  -2.21518100   -0.75943800   -0.78871700 
H                  -0.64118400   -2.22737200   -0.67365300 
C                  -1.85460000    1.27493300    0.46559400 
H                  -0.00423600    1.38445900    1.56554300 
C                  -2.65218800    0.50414100   -0.38094100 
H                  -2.83371100   -1.36325400   -1.44724100 
H                  -2.18884100    2.25796800    0.78580700 
H                  -3.61118200    0.88465300   -0.72190400 
H                   2.00782547   -0.83096491    0.11526552 
H                   1.16533800   -2.06934300    1.09205100 
H                   1.49308700   -0.51321900    1.86869100 
7
M3_ref_4
N                   2.23400200   -0.78778000   -0.10684500 
C                   1.17704800   -0.98958900    0.93110800 
H                   1.16533800   -2.06934300    1.09205100 
N                   2.38765400    0.38371000   -0.46803700 
N                   2.61107400    1.42613900   -0.87893800 
H                   1.49308700   -0.51321900    1.86869100 
H                   0.19436117   -0.62280175    0.62166990 
7
M3_ref_5
N                   2.23400200   -0.78778000   -0.10684500 
C                   1.17704800   -0.98958900    0.93110800 
H                   1.49308700   -0.51321900    1.86869100 
N                   2.38765400    0.38371000   -0.46803700 
N                   2.61107400    1.42613900   -0.87893800 
H                   1.16533800   -2.06934300    1.09205100 
H                   0.19436117   -0.62280175    0.62166990 
5
M3_ref_6
H                   1.16533800   -2.06934300    1.09205100 
C                   1.17704800   -0.98958900    0.93110800 
H                   1.49308700   -0.51321900    1.86869100 
H                   2.00782547   -0.83096491    0.11526552 
H                   0.19436117   -0.62280175    0.62166990 
15
M3_ref_7
H                   1.16533800   -2.06934300    1.09205100 
C                   1.17704800   -0.98958900    0.93110800 
C                  -0.18046800   -0.48289700    0.50364000 
C                  -0.98562800   -1.24790700   -0.35030900 
C                  -0.62371300    0.78269300    0.90420000 
C                  -2.21518100   -0.75943800   -0.78871700 
H                  -0.64118400   -2.22737200   -0.67365300 
C                  -1.85460000    1.27493300    0.46559400 
H                  -0.00423600    1.38445900    1.56554300 
C                  -2.65218800    0.50414100   -0.38094100 
H                  -2.83371100   -1.36325400   -1.44724100 
H                  -2.18884100    2.25796800    0.78580700 
H                  -3.61118200    0.88465300   -0.72190400 
H                   2.00782547   -0.83096491    0.11526552 
H                   1.49308700   -0.51321900    1.86869100 
15
M3_ref_8
H                   1.49308700   -0.51321900    1.86869100 
C                   1.17704800   -0.98958900    0.93110800 
C                  -0.18046800   -0.48289700    0.50364000 
C                  -0.98562800   -1.24790700   -0.35030900 
C                  -0.62371300    0.78269300    0.90420000 
C                  -2.21518100   -0.75943800   -0.78871700 
H                  -0.64118400   -2.22737200   -0.67365300 
C                  -1.85460000    1.27493300    0.46559400 
H                  -0.00423600    1.38445900    1.56554300 
C                  -2.65218800    0.50414100   -0.38094100 
H                  -2.83371100   -1.36325400   -1.44724100 
H                  -2.18884100    2.25796800    0.78580700 
H                  -3.61118200    0.88465300   -0.72190400 
H                   2.00782547   -0.83096491    0.11526552 
H                   1.16533800   -2.06934300    1.09205100 
4
M3_ref_9
C                   0.60443800    0.00000300  -20.00006300 
C                  -0.60445000    0.00011900  -19.99967700 
H                   1.66243648   -0.00000713  -20.00004707 
H                  -1.66243762    0.00001186  -19.99997669 
6
M3_ref_10
C                   0.60443800    0.00000300  -20.00006300 
C                   2.06599200   -0.00001100  -20.00004100 
N                  -0.50890070    0.00010983  -19.99970751 
H                   2.46572500   -0.90784100  -20.46915600 
H                   2.46581400    0.86012500  -20.55163300 
H                   2.46579200    0.04755200  -18.97933000 
7
M3_ref_11
C                  -0.60445000    0.00011900  -19.99967700 
C                   0.60443800    0.00000300  -20.00006300 
C                   2.06599200   -0.00001100  -20.00004100 
H                  -1.66243762    0.00001186  -19.99997669 
H                   2.46572500   -0.90784100  -20.46915600 
H                   2.46581400    0.86012500  -20.55163300 
H                   2.46579200    0.04755200  -18.97933000 
6
M3_ref_12
C                  -0.60445000    0.00011900  -19.99967700 
C                  -2.06598900   -0.00002900  -20.00009100 
N                   0.50888870    0.00001217  -20.00003249 
H                  -2.46568800    0.81949400  -20.61043100 
H                  -2.46544700   -0.93840000  -20.40488600 
H                  -2.46613800    0.11857900  -18.98533400 
7
M3_ref_13
C                   0.60443800    0.00000300  -20.00006300 
C                  -0.60445000    0.00011900  -19.99967700 
C                  -2.06598900   -0.00002900  -20.00009100 
H                   1.66243648   -0.00000713  -20.00004707 
H                  -2.46568800    0.81949400  -20.61043100 
H                  -2.46544700   -0.93840000  -20.40488600 
H                  -2.46613800    0.11857900  -18.98533400 
5
M3_ref_14
C                  -2.06598900   -0.00002900  -20.00009100 
H                  -2.46568800    0.81949400  -20.61043100 
H                  -1.00800138    0.00007814  -19.99979131 
H                  -2.46544700   -0.93840000  -20.40488600 
H                  -2.46613800    0.11857900  -18.98533400 
5
M3_ref_15
C                  -2.06598900   -0.00002900  -20.00009100 
H                  -2.46544700   -0.93840000  -20.40488600 
H                  -1.00800138    0.00007814  -19.99979131 
H                  -2.46568800    0.81949400  -20.61043100 
H                  -2.46613800    0.11857900  -18.98533400 
5
M3_ref_16
C                  -2.06598900   -0.00002900  -20.00009100 
H                  -2.46613800    0.11857900  -18.98533400 
H                  -1.00800138    0.00007814  -19.99979131 
H                  -2.46568800    0.81949400  -20.61043100 
H                  -2.46544700   -0.93840000  -20.40488600 
6
M3_ref_17
C                  -0.60445000    0.00011900  -19.99967700 
C                  -2.06598900   -0.00002900  -20.00009100 
H                  -2.46568800    0.81949400  -20.61043100 
N                   0.50888870    0.00001217  -20.00003249 
H                  -2.46544700   -0.93840000  -20.40488600 
H                  -2.46613800    0.11857900  -18.98533400 
6
M3_ref_18
C                  -0.60445000    0.00011900  -19.99967700 
C                  -2.06598900   -0.00002900  -20.00009100 
H                  -2.46544700   -0.93840000  -20.40488600 
N                   0.50888870    0.00001217  -20.00003249 
H                  -2.46568800    0.81949400  -20.61043100 
H                  -2.46613800    0.11857900  -18.98533400 
6
M3_ref_19
C                  -0.60445000    0.00011900  -19.99967700 
C                  -2.06598900   -0.00002900  -20.00009100 
H                  -2.46613800    0.11857900  -18.98533400 
N                   0.50888870    0.00001217  -20.00003249 
H                  -2.46568800    0.81949400  -20.61043100 
H                  -2.46544700   -0.93840000  -20.40488600 
5
M3_ref_20
H                  -2.46568800    0.81949400  -20.61043100 
C                  -2.06598900   -0.00002900  -20.00009100 
H                  -2.46544700   -0.93840000  -20.40488600 
H                  -1.00800138    0.00007814  -19.99979131 
H                  -2.46613800    0.11857900  -18.98533400 
5
M3_ref_21
H                  -2.46568800    0.81949400  -20.61043100 
C                  -2.06598900   -0.00002900  -20.00009100 
H                  -2.46613800    0.11857900  -18.98533400 
H                  -1.00800138    0.00007814  -19.99979131 
H                  -2.46544700   -0.93840000  -20.40488600 
5
M3_ref_22
H                  -2.46544700   -0.93840000  -20.40488600 
C                  -2.06598900   -0.00002900  -20.00009100 
H                  -2.46613800    0.11857900  -18.98533400 
H                  -1.00800138    0.00007814  -19.99979131 
H                  -2.46568800    0.81949400  -20.61043100 
5
M3_ref_23
C                   2.06599200   -0.00001100  -20.00004100 
H                   2.46572500   -0.90784100  -20.46915600 
H                   1.00799352   -0.00000087  -20.00005693 
H                   2.46581400    0.86012500  -20.55163300 
H                   2.46579200    0.04755200  -18.97933000 
5
M3_ref_24
C                   2.06599200   -0.00001100  -20.00004100 
H                   2.46581400    0.86012500  -20.55163300 
H                   1.00799352   -0.00000087  -20.00005693 
H                   2.46572500   -0.90784100  -20.46915600 
H                   2.46579200    0.04755200  -18.97933000 
5
M3_ref_25
C                   2.06599200   -0.00001100  -20.00004100 
H                   2.46579200    0.04755200  -18.97933000 
H                   1.00799352   -0.00000087  -20.00005693 
H                   2.46572500   -0.90784100  -20.46915600 
H                   2.46581400    0.86012500  -20.55163300 
6
M3_ref_26
C                   0.60443800    0.00000300  -20.00006300 
C                   2.06599200   -0.00001100  -20.00004100 
H                   2.46572500   -0.90784100  -20.46915600 
N                  -0.50890070    0.00010983  -19.99970751 
H                   2.46581400    0.86012500  -20.55163300 
H                   2.46579200    0.04755200  -18.97933000 
6
M3_ref_27
C                   0.60443800    0.00000300  -20.00006300 
C                   2.06599200   -0.00001100  -20.00004100 
H                   2.46581400    0.86012500  -20.55163300 
N                  -0.50890070    0.00010983  -19.99970751 
H                   2.46572500   -0.90784100  -20.46915600 
H                   2.46579200    0.04755200  -18.97933000 
6
M3_ref_28
C                   0.60443800    0.00000300  -20.00006300 
C                   2.06599200   -0.00001100  -20.00004100 
H                   2.46579200    0.04755200  -18.97933000 
N                  -0.50890070    0.00010983  -19.99970751 
H                   2.46572500   -0.90784100  -20.46915600 
H                   2.46581400    0.86012500  -20.55163300 
5
M3_ref_29
H                   2.46572500   -0.90784100  -20.46915600 
C                   2.06599200   -0.00001100  -20.00004100 
H                   2.46581400    0.86012500  -20.55163300 
H                   1.00799352   -0.00000087  -20.00005693 
H                   2.46579200    0.04755200  -18.97933000 
5
M3_ref_30
H                   2.46572500   -0.90784100  -20.46915600 
C                   2.06599200   -0.00001100  -20.00004100 
H                   2.46579200    0.04755200  -18.97933000 
H                   1.00799352   -0.00000087  -20.00005693 
H                   2.46581400    0.86012500  -20.55163300 
5
M3_ref_31
H                   2.46581400    0.86012500  -20.55163300 
C                   2.06599200   -0.00001100  -20.00004100 
H                   2.46579200    0.04755200  -18.97933000 
H                   1.00799352   -0.00000087  -20.00005693 
H                   2.46572500   -0.90784100  -20.46915600 
4
M3_ref_32
N                   2.23400200   -0.78778000   -0.10684500 
N                   2.38765400    0.38371000   -0.46803700 
N                   2.61107400    1.42613900   -0.87893800 
H                   1.49393444   -0.92908444    0.61991827 
4
M3_ref_33
N                   2.38765400    0.38371000   -0.46803700 
N                   2.61107400    1.42613900   -0.87893800 
N                   2.23400200   -0.78778000   -0.10684500 
H                   1.49393444   -0.92908444    0.61991827 
4
M3_ref_34
N                   2.23400200   -0.78778000   -0.10684500 
N                   2.38765400    0.38371000   -0.46803700 
N                   2.61107400    1.42613900   -0.87893800 
H                   1.49393444   -0.92908444    0.61991827 
12
M3_frag_ref_0
C                  -0.18046800   -0.48289700    0.50364000 
C                  -0.98562800   -1.24790700   -0.35030900 
C                  -0.62371300    0.78269300    0.90420000 
C                  -2.21518100   -0.75943800   -0.78871700 
H                  -0.64118400   -2.22737200   -0.67365300 
C                  -1.85460000    1.27493300    0.46559400 
H                  -0.00423600    1.38445900    1.56554300 
C                  -2.65218800    0.50414100   -0.38094100 
H                  -2.83371100   -1.36325400   -1.44724100 
H                  -2.18884100    2.25796800    0.78580700 
H                  -3.61118200    0.88465300   -0.72190400 
H                   0.80221883   -0.84968425    0.81307810 
