12
M1_conf_0_0
C                  -1.40161178    0.96201195    5.95127583 
C                  -0.16874585    0.98674314    5.28643966 
C                  -1.42188064    0.98070542    7.35822833 
C                   1.03007384    1.09995067    6.00239415 
H                  -0.13995565    0.94493740    4.19859784 
C                  -0.22838105    1.03165491    8.07118550 
H                  -2.37717442    0.96080753    7.88532917 
C                   0.99267112    1.10627373    7.40867361 
H                  -0.25177762    1.03667057    9.16319611 
H                   1.92271874    1.18334958    7.97420526 
H                  -2.27998674    0.98255725    5.41006481 
H                   1.91742175    1.23619569    5.49324953 
12
M1_conf_0_1
C                  -0.76885684   -5.27380872    1.81912852 
C                   0.41844025   -4.53057416    1.78781327 
C                  -0.70833766   -6.67848898    1.89098392 
C                   1.65786089   -5.18309970    1.83415991 
H                   0.37838323   -3.44103204    1.73712237 
C                   0.52256925   -7.32303154    1.92789297 
H                  -1.63393324   -7.25577506    1.91783418 
C                   1.70233834   -6.58823019    1.90397777 
H                   0.56368235   -8.41293966    1.98378717 
H                   2.66795327   -7.09529360    1.94126987 
H                  -1.68438605   -4.80181787    1.79206452 
H                   2.53120411   -4.63686485    1.81940053 
12
M1_conf_0_2
C                  -0.90949392   -3.20178421   -4.60763049 
C                   0.26636038   -2.67233429   -4.05774647 
C                  -0.83123391   -4.12746403   -5.66656960 
C                   1.51311496   -3.06543186   -4.56469788 
H                   0.21056001   -1.95697406   -3.23497387 
C                   0.40663027   -4.51947380   -6.16295409 
H                  -1.74868121   -4.53516357   -6.09421867 
C                   1.57456282   -3.99540982   -5.62066184 
H                   0.46285947   -5.23697629   -6.98418352 
H                   2.54569012   -4.30236257   -6.01302937 
H                  -1.83142342   -2.92155301   -4.24392704 
H                   2.38287519   -2.67784901   -4.17203248 
12
M1_conf_0_3
C                  -1.70669565    4.98757244   -3.59321817 
C                  -0.49782681    4.48998302   -3.08526078 
C                  -1.69128624    6.07606885   -4.48567771 
C                   0.71764818    5.08219059   -3.45256878 
H                  -0.50343173    3.64627245   -2.39372514 
C                  -0.48220448    6.65136757   -4.86308758 
H                  -2.63149459    6.46699048   -4.87839468 
C                   0.71662327    6.16615759   -4.35240665 
H                  -0.47503058    7.49480299   -5.55665277 
H                   1.66185506    6.62613447   -4.64550447 
H                  -2.59748578    4.56430203   -3.29555140 
H                   1.60799759    4.73835062   -3.06266479 
45
M1_conf_0_4
Pd                 -6.13707397   -0.02689851    0.02914092 
N                  -6.02307536   -1.06364370   -1.70608147 
N                  -6.32420589    1.68838436   -1.03726688 
C                  -7.11536694   -1.53948882   -2.32258051 
C                  -4.80067023   -1.36524435   -2.15677495 
N                  -5.90142273   -1.78458213    1.01425467 
N                  -6.11385185    0.91864293    1.83045699 
C                  -7.51874130    2.16387861   -1.42175455 
C                  -5.19644276    2.25816513   -1.47361476 
C                  -7.00800530   -2.37029494   -3.43209490 
H                  -8.08536649   -1.25122447   -1.91180517 
C                  -4.60349871   -2.19908934   -3.26636715 
H                  -3.95031293   -0.93950147   -1.61699131 
C                  -6.95442000   -2.41772467    1.55382785 
C                  -4.67686633   -2.31586208    1.09059266 
C                  -7.20102964    1.47119511    2.39037134 
C                  -4.97568894    0.81393070    2.52868939 
C                  -7.61824516    3.25253691   -2.28122566 
H                  -8.40612330    1.65550129   -1.03675665 
C                  -5.20738235    3.35298221   -2.35042737 
H                  -4.25845021    1.82038405   -1.11988324 
C                  -5.74861709   -2.71278738   -3.90566498 
H                  -7.91022513   -2.74978613   -3.91453920 
C                  -6.80329950   -3.63630652    2.20351593 
H                  -7.92988430   -1.93546601    1.46137622 
C                  -4.43876562   -3.54724795    1.71663782 
H                  -3.85475231   -1.74736215    0.64850458 
C                  -7.18246481    1.92984369    3.70335408 
H                  -8.10040526    1.54468356    1.77519022 
C                  -4.87515380    1.23591008    3.86134997 
H                  -4.11439881    0.38927736    2.00664016 
C                  -6.45923123    3.85166813   -2.75723959 
H                  -5.63504017   -3.37025250   -4.77003172 
C                  -5.54187818   -4.21014401    2.28768433 
H                  -7.67468097   -4.12862487    2.63803085 
C                  -6.01939339    1.80527491    4.45198139 
H                  -8.08064787    2.37582902    4.13438003 
H                  -6.50986404    4.70312674   -3.43913969 
H                  -5.39613855   -5.16815754    2.79002060 
H                  -5.98332466    2.15053803    5.48701370 
H                  -3.65507402   -2.42643565   -3.58416103 
H                  -8.60074889    3.62156443   -2.58148559 
H                  -4.32285326    3.75920574   -2.67629634 
H                  -3.49308936   -3.94564077    1.74252725 
H                  -3.99049100    1.12705456    4.37585940 
45
M1_conf_0_5
C                   4.99748861   -1.59966524   -3.09292108 
C                   4.33906064    3.91297016   -2.05096028 
C                   5.02586822   -0.73253803   -1.99115882 
C                   6.23011899   -1.96354264   -3.66803826 
C                   5.10964596   -3.04956176    1.76815261 
C                   4.49631727    1.85946371    4.02520145 
C                   4.58570966    2.83506421   -1.18861376 
C                   5.44797620    4.65543997   -2.50219379 
N                   6.17265407   -0.26009950   -1.49086632 
H                   4.09943784   -0.42449626   -1.49779200 
C                   7.40755122   -1.45421689   -3.13667908 
H                   6.24989537   -2.63955514   -4.52534525 
C                   5.10595201   -1.74555463    1.25392242 
C                   6.33683023   -3.56347582    2.22653964 
C                   4.71407218    1.42013725    2.71289031 
C                   5.50931751    2.62700220    4.63093603 
N                   5.82545614    2.50808194   -0.80520967 
H                   3.77454275    2.20257376   -0.81573749 
C                   6.72319126    4.30642749   -2.08059288 
H                   5.29359034    5.49776442   -3.17986643 
Pd                  6.06211364    0.78363125    0.24354947 
C                   7.34848698   -0.59960871   -2.04165522 
H                   8.37501138   -1.72276349   -3.56464890 
N                   6.21725103   -1.00440954    1.18871075 
H                   4.18164438   -1.29773308    0.87813444 
C                   7.47696783   -2.77303096    2.16034760 
H                   6.38281397   -4.57499049    2.63395768 
N                   5.83932181    1.70075385    2.04507757 
H                   3.96022733    0.83098654    2.18457533 
C                   6.66178762    2.92330530    3.91442044 
H                   5.37977966    2.98912812    5.65265061 
C                   6.88099126    3.22050506   -1.22723668 
H                   7.59773605    4.86672596   -2.41514615 
H                   8.25082518   -0.18317344   -1.58825091 
C                   7.38687652   -1.48966373    1.63363186 
H                   8.43827779   -3.14783123    2.51644782 
C                   6.79940659    2.44326496    2.61627722 
H                   7.46035720    3.52185591    4.35656951 
H                   7.86757013    2.90479939   -0.88067334 
H                   8.26035728   -0.83811066    1.55847521 
H                   7.69147497    2.65408026    2.02234295 
H                   4.10315536   -1.95488991   -3.44836546 
H                   3.38755674    4.15204362   -2.35778583 
H                   4.23751616   -3.59021246    1.79085795 
H                   3.62173570    1.62317975    4.51297597 
4
M1_conf_0_6
C                   1.94760623    4.60719871   -2.91394255 
C                   3.02462177    4.24323413   -2.47481921 
H                   1.05725682    4.95103868   -3.30384654 
H                   3.97612567    4.00416067   -2.16799366 
4
M1_conf_0_7
C                  -3.98546469    3.91415280   -2.80059351 
C                  -2.93726252    4.40285273   -3.18201147 
H                  -4.86999378    3.50792927   -2.47472454 
H                  -2.04647239    4.82612314   -3.47967824 
4
M1_conf_0_8
C                   2.71463044   -2.53001212   -4.02225694 
C                   3.76202716   -2.09038432   -3.58394367 
H                   1.84487021   -2.91759497   -4.41492234 
H                   4.65636041   -1.73515965   -3.22849929 
4
M1_conf_0_9
C                  -3.29331355   -2.51315303   -3.70537810 
C                  -2.18307775   -2.81466359   -4.10519855 
H                  -4.24173824   -2.28580672   -3.38758422 
H                  -1.26114825   -3.09489479   -4.46890200 
4
M1_conf_0_10
C                   2.86432603   -4.42851286    1.81377081 
C                   3.90485708   -3.79643447    1.79951851 
H                   1.99098281   -4.97474771    1.82853019 
H                   4.77698688   -3.25578377    1.77681317 
4
M1_conf_0_11
C                  -3.13237724   -4.09760093    1.75240233 
C                  -2.03359909   -4.62178499    1.78174142 
H                  -4.07805350   -3.69920811    1.72651290 
H                  -1.11806988   -5.09377584    1.80880542 
4
M1_conf_0_12
C                   2.25588551    1.28816404    5.29904498 
C                   3.28814144    1.53305326    4.69902926 
H                   1.36853760    1.15191902    5.80818960 
H                   4.16272301    1.76933722    4.21125474 
4
M1_conf_0_13
C                  -3.65305143    1.08553348    4.57211027 
C                  -2.61502792    0.99039391    5.20362908 
H                  -4.53771423    1.19438900    4.05760084 
H                  -1.73665296    0.96984861    5.74484010 
4
M1_conf_0_14
C                   1.38140106    0.74024143    0.22981300 
O                   2.58679783    0.49503315    0.13415678 
H                   0.85017022    0.70349683    1.13941411 
H                   0.80463088    0.98956987   -0.64220934 
6
M1_conf_0_15
C                  -0.76189934    1.05208271   -0.96342329 
C                   0.58463171    1.08467196   -0.97482743 
H                  -1.34904874    1.23569461   -1.86845096 
H                   1.14493040    1.30895430   -1.88767956 
H                  -1.30765578    0.78569790   -0.08249942 
H                   1.16140189    0.83534352   -0.10280509 
6
M1_conf_0_16
C                  -0.75187611    0.66725471    1.50987624 
C                   0.64754126    0.68948123    1.48636598 
H                  -1.27349435    0.22876097    2.36551990 
H                   1.21125510    0.34514243    2.35763112 
H                  -1.30488823    0.67944150    0.60041321 
H                   1.17877210    0.72622583    0.57676487 
4
M1_conf_0_17
C                  -1.51582529    0.68408994    0.25351401 
O                  -2.71187064    0.39885660    0.19025896 
H                  -0.96281317    0.67190315    1.16297704 
H                  -0.97006885    0.95047475   -0.62740986 
5
M1_conf_0_18
C                  -1.91304550    4.24848315    0.23462731 
H                  -2.63847775    4.86047338    0.79205574 
H                  -2.49153077    3.53181772   -0.36943967 
H                  -1.37662133    4.91053411   -0.45730655 
H                  -1.23669567    3.74450291    0.91542127 
6
M1_conf_0_19
C                  -1.47962146    2.70136039    2.15578165 
C                  -0.97871354    3.55226822    1.17509855 
H                  -2.55837908    2.55212423    2.25257952 
H                  -0.91018278    2.50331622    3.06233853 
H                  -1.65506337    4.05624846    0.49430459 
H                   0.03413500    3.60997211    1.04841669 
6
M1_conf_0_20
C                   0.42046884    3.63198228    1.00009605 
C                   1.31012134    2.93812727    1.79173827 
H                   0.80074633    4.15194053    0.11468427 
H                   2.37405644    2.94465809    1.54227025 
H                   1.07574193    2.66920826    2.82248180 
H                  -0.59237970    3.57427839    1.12677791 
