12
frag_0
C                   0.61480800    4.96879200    0.14767600 
C                  -0.65433200    5.42853800   -0.20488500 
H                  -1.51599000    5.09403200    0.37367200 
C                  -0.81855600    6.29169800   -1.28511700 
H                  -1.81441800    6.65292300   -1.54195000 
C                   0.28356600    6.68385800   -2.04131300 
H                   0.15533100    7.36008600   -2.88587500 
C                   1.55073500    6.20937100   -1.71008300 
H                   2.41736200    6.50964600   -2.29858800 
C                   1.71500500    5.35814800   -0.62172100 
H                   2.70528600    4.98553600   -0.35513600 
H                   0.75259825    4.29216924    0.98793174 
14
frag_1
C                   2.00436700    2.14418600    0.17850300 
H                   1.93598300    2.15578100   -0.90920700 
C                   3.25145000    1.98676800    0.84094500 
C                   4.46531400    1.86451900    0.11887700 
H                   4.43337200    1.94856900   -0.97105700 
C                   5.66575600    1.62383400    0.76409100 
H                   6.57621300    1.51614000    0.17267600 
C                   5.72330400    1.50111700    2.15497900 
H                   6.66668800    1.28553000    2.65457500 
C                   4.54217500    1.62194000    2.88688400 
H                   4.55988600    1.48913000    3.96978800 
C                   3.33426100    1.86672500    2.25155000 
H                   2.41079800    1.92862000    2.83112100 
H                   1.12429092    2.53244006    0.72983548 
12
frag_2
C                  -3.57164800   -2.88875800   -0.38837200 
C                  -3.66790600   -2.49077200    0.94839900 
H                  -2.91759200   -1.81879800    1.37489400 
C                  -4.72425600   -2.92754000    1.73879400 
H                  -4.81358100   -2.56776900    2.76436400 
C                  -5.69115400   -3.77893400    1.20666200 
H                  -6.51989700   -4.11819700    1.82709500 
C                  -5.59686200   -4.18898700   -0.11843500 
H                  -6.34432500   -4.86116000   -0.53893300 
C                  -4.54009100   -3.74418100   -0.90945400 
H                  -4.46291700   -4.06305700   -1.95105400 
H                  -2.75275124   -2.53189378   -1.01734424 
12
frag_3
C                   0.05034800   -4.20462400   -2.23307700 
C                   1.32596300   -3.65538400   -2.41169900 
H                   1.80230500   -3.13546700   -1.57850400 
C                   1.97750800   -3.76751200   -3.63539700 
H                   2.97671500   -3.34431800   -3.75368400 
C                   1.35572900   -4.42189200   -4.69891100 
H                   1.86551600   -4.50812900   -5.65776500 
C                   0.08735600   -4.96643200   -4.53290500 
H                  -0.40261500   -5.47808100   -5.36087100 
C                  -0.55940800   -4.85791800   -3.30345600 
H                  -1.55282500   -5.29206800   -3.16577800 
H                  -0.46182089   -4.09629156   -1.27596651 
5
frag_4
C                  -0.65717900   -4.05497000   -0.91089300 
H                  -1.52649400   -4.72871600   -0.85866800 
H                   0.01544000   -4.29815800   -0.08216900 
H                  -1.03249925   -2.98413612   -0.74511935 
H                  -0.14501011   -4.16330244   -1.86800349 
5
frag_5
C                   0.80515600    4.03408300    1.30843300 
H                   1.74736700    4.25468400    1.83004900 
H                  -0.02342100    4.12676500    2.02280900 
H                   0.86767296    2.93685723    0.97162807 
H                   0.66736575    4.71070576    0.46817726 
4
frag_6
N                   0.88469300    2.63814100    0.87993400 
H                   1.66867642    2.29227914    0.38879973 
H                   0.82900207    3.61556423    1.17996429 
H                   0.09974892    2.10614230    0.82832097 
4
frag_7
O                  -1.40398700    2.34491300    0.84675900 
C                  -0.23635300    1.87834800    0.80622100 
H                   0.64480149    2.47555366    0.86416023 
H                  -0.00188053    0.85303297    0.71642367 
6
frag_8
C                  -0.77314900   -0.43924400    0.15124000 
H                  -1.72275300   -0.07843100   -0.24320300 
C                   0.08755500    0.46194400    0.68217200 
H                   1.03408700    0.12431400    1.10134800 
H                  -0.45740875   -1.43701878    0.04383993 
H                  -0.14691747    1.48725903    0.77196933 
4
frag_9
O                   0.75267800   -2.22452600    0.44721100 
C                  -0.33697500   -1.81760300    0.00287400 
H                  -0.96397912   -2.50536420   -0.54958326 
H                  -0.65271525   -0.81982822    0.11027407 
4
frag_10
N                  -1.13467900   -2.69260500   -0.69998800 
H                  -0.80033875   -3.64651799   -0.84766136 
H                  -2.04892838   -2.48476720   -1.09018022 
H                  -0.57613543   -2.07993822   -0.20785176 
5
frag_11
C                  -2.44039700   -2.39577400   -1.25725500 
H                  -2.49771200   -2.86492700   -2.25319600 
H                  -2.53438500   -1.31787000   -1.43539800 
H                  -1.41408829   -2.62908643   -0.81923701 
H                  -3.25929376   -2.75263822   -0.62828276 
