5

H             0.0000000000000           0.0000000000000           0.0000000000000
C             1.1001000000000           0.0000000000000           0.0000000000000
H             1.4496800000000           0.0000000000000           1.0454000000000
H             1.5504500000000          -0.8861500000000          -0.5992900000000
H             1.4473400000000           0.9152500000000          -0.4866500000000
