5
M1_ref_0
C                  -1.17919400   -0.02756400    0.00000000 
Cl                 -2.70946400    0.83867600    0.00000000 
N                  -1.24147000   -1.34733400    0.00000000 
H                  -0.32559197    0.51623364    0.00000000 
H                  -0.42556426   -1.81108248    0.00000000 
6
M1_ref_1
H                  -0.01639700    1.80588900    0.00000000 
C                   1.19203600    0.00548000    0.00000000 
C                   0.00000000    0.72365600    0.00000000 
Cl                  2.71633200    0.85994100    0.00000000 
H                   1.17715725   -1.00466310    0.00000000 
H                  -0.85360203    0.17985836    0.00000000 
6
M1_ref_2
C                  -0.07620500   -2.00965300    0.00000000 
H                  -0.14698200   -3.09506300    0.00000000 
C                   1.17148200   -1.38996500    0.00000000 
H                   2.08818800   -1.96769500    0.00000000 
H                  -0.99211611   -1.48906298    0.00000000 
H                   1.18636075   -0.37982190    0.00000000 
9
M1_ref_3
Pd                  0.00019100   -0.00750200  -19.99995500 
P                   2.30249200    0.05322200  -19.96071900 
H                   3.06868400   -0.53073400  -21.00215900 
H                   2.99937000    1.28882000  -19.94525300 
H                   3.03295200   -0.53693900  -18.89731600 
P                  -2.30237900   -0.05591800  -20.03927100 
H                  -3.05779200    1.14488500  -20.04289400 
H                  -3.00390300   -0.66996000  -21.10864400 
H                  -3.03960900   -0.68607000  -19.00383900 
