44 

C                   5.31546108   30.63386973   38.41118906 
O                   4.54866921   29.75935546   38.90076317 
O                   5.07620270   31.88223651   38.36140512 
C                   6.59734997   30.15336180   37.77353344 
C                   6.88849637   28.66859335   37.78095544 
C                   7.85137108   28.27853279   36.66016597 
N                   8.29348347   26.87987822   36.90709007 
C                   9.05815842   29.22315494   36.54146980 
N                   9.94278087   28.81646777   35.47823896 
C                   8.52469902   30.62911852   36.24674665 
C                   7.40058140   31.01613672   37.14499074 
O                   9.57392422   31.59734060   36.31660555 
C                   9.96144351   32.13070421   35.03487299 
C                   8.88945036   33.02960796   34.40584730 
C                  11.18003594   28.30885002   35.66662081 
O                  11.68495031   28.16223233   36.78224620 
C                  11.93997707   27.96609213   34.40104908 
C                  11.29759318   32.83351577   35.26357959 
C                  12.39183353   31.86100702   35.71460060 
C                   8.54444366   34.28585258   35.21365556 
H                   8.68578593   26.77492820   37.86169766 
H                   7.45756973   26.22559515   36.86482018 
H                   8.97667460   26.53563818   36.21270687 
H                   9.58740548   28.89401456   34.52179532 
H                   7.33543218   28.24744017   35.69423668 
H                   9.62199884   29.21995954   37.47798455 
H                   8.12525290   30.62510007   35.22418742 
H                   7.14682332   32.07322660   37.16346585 
H                  10.12676989   31.28755600   34.35321754 
H                   5.96160793   28.09692575   37.68068369 
H                   7.33166871   28.37440871   38.74692404 
H                   7.98041472   32.44327382   34.23700232 
H                   9.25011468   33.32053273   33.41176116 
H                  12.32947608   26.95087097   34.48008925 
H                  12.78016043   28.65808740   34.27632982 
H                  11.31158018   28.03767000   33.50924684 
H                  11.16059839   33.60447031   36.03079584 
H                  11.58499088   33.34497207   34.33781989 
H                  13.35542316   32.37103570   35.83603415 
H                  12.52186466   31.05989599   34.97647088 
H                  12.12014760   31.39573325   36.66455593 
H                   7.66856461   34.78615312   34.78976097 
H                   9.37298549   35.00168393   35.19659273 
H                   8.33002343   34.04355654   36.25933349 

