2
frag_0
H                   1.16737885   -0.67704677   27.56472326 
H                   0.71432315   -0.63735423   26.98192174 
5
frag_1
C                  -1.69922068    0.26960066    1.61255371 
H                  -0.97903174    0.36428605    2.42682036 
H                  -2.55936524    0.89903077    1.82787369 
H                  -2.02797854   -0.76959552    1.55195751 
H                  -1.23900225    0.62698831    0.60950679 
3
frag_2
O                  -1.13872374    0.70486068    0.39094960 
H                  -0.51572218    0.23127937   -0.02064284 
H                  -1.52367808    0.40592018    1.22995830 
3
frag_3
O                   0.31970220    0.44633527   -1.41635304 
H                  -0.00258230    0.14031849   -0.65653324 
H                   0.00045340    1.29114588   -1.77938213 
5
frag_4
C                  -0.14512688    1.67638702   -1.94492662 
H                  -1.21639868    1.63430638   -2.14261544 
H                   0.04661270    2.49396636   -1.25007974 
H                   0.38933317    1.85730279   -2.87406430 
H                   0.23653963    0.66640383   -1.51092014 
4
frag_5
B                  -0.17753149   -0.02579991   -0.24407203 
H                   0.20988990   -1.05159398    0.14796895 
H                  -0.97643508    0.58149522    0.28373191 
H                   0.23574877    0.36661949   -1.21842394 
5
frag_6
C                   0.34765889   -1.41637150    0.28738069 
H                  -0.48403329   -2.13238119    0.17629062 
H                   0.52393733   -1.35095828    1.36634202 
H                   1.31184212   -1.74474857   -0.23898021 
H                  -0.01352871   -0.46003787   -0.07811369 
4
frag_7
N                   1.57433794   -1.83414819   -0.38228030 
H                   1.56486511   -1.54988166   -1.35238812 
H                   1.70522894   -2.83467573   -0.34611959 
H                   0.71543076   -1.54162555    0.08660896 
