6
0 1
C                   0.00000000    0.00000000    0.00000000 
C                   1.48820000    0.00000000    0.00000000 
N                  -1.11201000    0.00000000   -0.01417000 
H                   1.85135000   -0.88610000    0.53982000 
H                   1.85073000    0.86985000    0.56662000 
H                   1.92441000    0.01399000   -1.02756000 


