5
0 1
H                   0.00000000    0.00000000    0.00000000 
C                   1.09610000    0.00000000    0.00000000 
H                   1.40825000    0.00000000    1.04977000 
H                   1.47408000    0.92203000   -0.50333000 
H                   1.46220000   -0.92132000   -0.49029000 


