5
M1_conf_0_0
C                   0.58563444   -0.04591324   -2.96359819 
H                   0.10742796   -0.30230554   -3.92000089 
H                   1.57641974   -0.52139665   -2.92114209 
H                   0.73283325    1.04151880   -2.94287187 
H                  -0.08442087   -0.36055274   -2.07907708 
5
M1_conf_0_1
C                   0.86586669   -3.32951942   -3.17277965 
H                   1.91286300   -3.30535285   -3.48664197 
H                   0.29252149   -2.72576064   -3.88807157 
H                   0.87726426   -2.80734417   -2.10742731 
H                   0.49704331   -4.36121900   -3.11840542 
5
M1_conf_0_2
C                   0.35636191   -4.75474326   -3.09766530 
H                   0.69806825   -5.27974676   -3.99782841 
H                   0.84855695   -5.24577908   -2.24817931 
H                   0.72518529   -3.72304368   -3.15203953 
H                  -0.73980100   -4.84632374   -3.01614772 
5
M1_conf_0_3
C                  -1.15791369   -4.88125555   -2.98505423 
H                  -1.42346479   -5.94074629   -2.89170315 
H                  -1.61140773   -4.53336630   -3.92480741 
H                  -1.60912475   -4.31291227   -2.15290784 
H                  -0.06175078   -4.78967507   -3.06657181 
5
M1_conf_0_4
C                  -1.78123153   -4.09612739   -1.83549975 
H                  -2.85742964   -4.29892108   -1.81355425 
H                  -1.38602685   -4.44564463   -0.87193107 
H                  -1.63158945   -3.00115623   -1.92547367 
H                  -1.33002047   -4.66447067   -2.66764614 
5
M1_conf_0_5
C                  -1.57451103   -2.58349811   -1.95979269 
H                  -2.34429081   -2.03553629   -1.41007740 
H                  -1.65735488   -2.28145931   -3.01079601 
H                  -0.61741968   -2.25337555   -1.54071294 
H                  -1.72415311   -3.67846927   -1.86981877 
5
M1_conf_0_6
C                  -1.24159697    2.75418411    0.01359803 
H                  -1.49473167    2.47430243    1.04430297 
H                  -1.05915137    3.83690731    0.00899440 
H                  -0.27214015    2.19348938   -0.25596678 
H                  -2.11580963    2.54286832   -0.64400402 
5
M1_conf_0_7
C                  -2.44926318    2.46226550   -0.89483513 
H                  -2.61159588    1.35500556   -1.00418809 
H                  -1.57505052    2.67358129   -0.23723308 
H                  -2.29348476    2.90367810   -1.89498380 
H                  -3.32952681    2.91866269   -0.40480826 
5
M1_conf_0_8
C                  -3.66528839    3.09274764   -0.21789585 
H                  -3.50319266    4.15868557   -0.02151976 
H                  -3.87908700    2.60796412    0.74271291 
H                  -4.55514228    2.99895341   -0.84899671 
H                  -2.78502476    2.63635045   -0.70792272 
5
M1_conf_0_9
C                  -2.23406573    3.07204743   -2.27647349 
H                  -2.14257073    4.16274371   -2.21911986 
H                  -1.32594779    2.67880472   -2.74891181 
H                  -3.07559996    2.84261841   -2.93966855 
H                  -2.38984415    2.63063483   -1.27632482 
5
M1_conf_0_10
C                  -2.67351493    0.93266009   -1.04589892 
H                  -2.20254541    0.57719728   -1.96523785 
H                  -3.74990856    0.71971430   -1.10200980 
H                  -2.19608761    0.37657498   -0.16653945 
H                  -2.51118223    2.03992003   -0.93654596 
19
M1_conf_0_11
Al                  0.00000000    0.00000000    0.00000000 
N                   0.00000000    0.00000000    1.95124933 
N                   1.95479611    0.00000000   -0.16337355 
O                  -0.23042143   -0.42911057   -1.88634587 
C                  -2.85069249   -0.18722784    1.01989463 
C                   0.98415415    2.78629335   -0.72366508 
N                  -2.06610954    0.22518257    0.07286338 
H                  -3.93713103   -0.13651595    0.86907224 
N                  -0.00820861    2.04084202   -0.32935495 
H                   0.80634212    3.86034970   -0.86082277 
H                   0.75573333    0.03776172    2.55488815 
H                  -0.73199256   -0.31780354    2.47707240 
H                   2.55784015   -0.74224203   -0.02382827 
H                   2.49656021    0.71459733   -0.48332469 
H                   0.33005309   -0.16592719   -2.62621246 
H                  -2.51674281   -0.50612876    1.95006506 
H                   1.95471605    2.45900038   -0.87850484 
H                  -2.49140811    0.72055055   -0.71048168 
H                  -0.87181357    2.54031630   -0.08922305 
10
M1_conf_0_12
N                   1.95479611    0.00000000   -0.16337355 
C                   2.81605505   -1.06005954    0.03592304 
C                   2.72853591    1.02057777   -0.62032323 
C                   4.11889454   -0.74297733   -0.28449301 
H                   2.41385259   -2.00109256    0.39079183 
C                   4.09649186    0.61606507   -0.72104636 
H                   4.97752793   -1.39849340   -0.21528711 
H                   0.95166903    0.00000000   -0.07953645 
H                   2.43636428    1.97146159   -0.84997071 
H                   4.78294883    1.28281836   -1.05445005 
10
M1_conf_0_13
N                   0.00000000    0.00000000    1.95124933 
C                   1.07932763    0.05393076    2.81335773 
C                  -1.04542139   -0.45388251    2.70222238 
C                   0.75312020   -0.35631100    4.08732955 
H                   2.04208962    0.38353385    2.43989407 
C                  -0.63118032   -0.70261802    4.04669794 
H                   1.41845869   -0.40313734    4.93978203 
H                   0.00000000    0.00000000    0.94994232 
H                  -2.01828218   -0.57975585    2.41457930 
H                  -1.30910985   -1.04786207    4.71706999 
4
M1_conf_0_14
O                  -0.18172376   -1.89580816   -0.10329973 
C                  -0.25235347   -2.12745591   -1.38086210 
H                  -1.20944482   -2.45757847   -1.79994185 
H                   0.67720349   -2.59228299   -1.78683534 
12
M1_conf_0_15
C                  -1.04542139   -0.45388251    2.70222238 
C                  -2.38936338   -0.62776809    2.30486274 
C                  -0.63118032   -0.70261802    4.04669794 
C                  -3.29991994   -1.09588138    3.26761170 
C                  -1.56769454   -1.17954954    4.97277201 
C                  -2.89114998   -1.38255786    4.57325334 
H                  -4.34279660   -1.21905372    2.98322051 
H                  -1.27370134   -1.38406556    6.00021074 
H                  -3.61865435   -1.74861051    5.29227814 
H                  -0.22370868   -0.09712586    2.11194930 
H                  -2.72331306   -0.30886717    1.37469231 
H                   0.37089545   -0.45193122    4.07611059 
12
M1_conf_0_16
C                   2.72853591    1.02057777   -0.62032323 
C                   2.32492038    2.33416004   -0.93756583 
C                   4.09649186    0.61606507   -0.72104636 
C                   3.31064442    3.23140155   -1.38694203 
C                   5.04478616    1.53714006   -1.18162122 
C                   4.64404870    2.83505029   -1.51527900 
H                   3.01845848    4.25211639   -1.62482863 
H                   6.09114155    1.25310675   -1.27437138 
H                   5.38218211    3.54983186   -1.86795942 
H                   2.12036792    0.21839242   -0.26115576 
H                   1.35435848    2.66145301   -0.78272607 
H                   4.11270885   -0.36772670   -0.40503150 
