7 

N                  -3.43318162   -0.00000378    0.00108867 
C                  -2.26183831    0.00000687   -0.00104994 
C                   0.00857027    0.00000324   -0.00116594 
H                  -0.10125683    0.92984248   -0.53350373 
H                  -0.10223671   -0.00393282    1.07011690 
H                  -0.10126731   -0.92589217   -0.54033277 
Cl                  2.15681824   -0.00000246    0.00043166 

