7 

N                  -3.45410689   -0.00000382    0.00110838 
C                  -2.28286995    0.00000980   -0.00114807 
C                   0.08946109    0.00000259   -0.00113310 
H                  -0.09662547    0.92171960   -0.52887840 
H                  -0.09747967   -0.00389364    1.06077745 
H                  -0.09663425   -0.91781639   -0.53562838 
Cl                  2.14425185   -0.00000300    0.00044645 

