7 

N                  -3.62829155   -0.00000446    0.00150914 
C                  -2.45326782   -0.00003763   -0.00108853 
C                   0.36253901    0.00004038   -0.00167962 
H                   0.02514964    0.89455373   -0.51449011 
H                   0.02298037   -0.00358529    1.02859180 
H                   0.02512008   -0.89082515   -0.52077065 
Cl                  2.16827652   -0.00000329    0.00053780 

