7 

N                  -3.46559428   -0.00000399    0.00112866 
C                  -2.29416207    0.00001173   -0.00120160 
C                   0.13273512    0.00000182   -0.00110807 
H                  -0.09005324    0.91649027   -0.52580446 
H                  -0.09071000   -0.00387830    1.05474694 
H                  -0.09006276   -0.91260875   -0.53251840 
Cl                  2.13730322   -0.00000314    0.00044369 

