7 

N                  -3.36294016   -0.00000269    0.00089480 
C                  -2.18909966    0.00000631   -0.00089657 
C                  -0.25280840    0.00000518   -0.00113046 
H                  -0.10102283    0.92707435   -0.53164631 
H                  -0.10172790   -0.00388041    1.06703762 
H                  -0.10103505   -0.92317854   -0.53838116 
Cl                  2.19339659   -0.00000332    0.00042344 

