7 

N                  -3.37695861   -0.00000286    0.00092888 
C                  -2.20366687    0.00000628   -0.00092598 
C                  -0.20328965    0.00000481   -0.00114203 
H                  -0.09928575    0.93110774   -0.53400221 
H                  -0.10005073   -0.00390123    1.07164993 
H                  -0.09929131   -0.92718654   -0.54077992 
Cl                  2.18686706   -0.00000324    0.00042796 

