6
M3_conf_0_0
C                   0.00000000    0.00000000    0.00000000 
C                   1.50250000    0.00000000    0.00000000 
H                  -0.61629000    0.00000000   -0.89103000 
H                  -0.46928000   -0.09565000    0.96343000 
H                   2.04669000    0.51215000   -0.81046000 
O                   2.12329000   -0.60870000    0.88006000 
7
M3_conf_0_1
C                   0.00000000    0.00000000    0.00000000 
C                   1.50800000    0.00000000    0.00000000 
H                  -0.60690000    0.00000000   -0.87746000 
H                  -0.52538000    0.09570000    0.93401000 
H                   1.90342000   -0.91797000    0.45788000 
H                   1.92986000    0.09712000   -1.00133000 
H                   1.88191000    0.82990000    0.61119000 
7
M3_conf_0_2
C                   0.00000000    0.00000000    0.00000000 
C                   1.50840000    0.00000000    0.00000000 
H                  -0.46535000    0.00000000   -0.96006000 
H                  -0.52904000   -0.08815000    0.94133000 
H                   1.91885000    0.19572000   -0.99117000 
H                   1.91449000    0.70849000    0.73009000 
H                   1.98814000   -1.01321000    0.32960000 
9
M3_conf_0_3
C                   0.00000000    0.00000000    0.00000000 
C                   1.47380000    0.00000000    0.00000000 
C                   2.10965000    0.00000000    1.35492000 
H                  -0.54419000    0.51215000    0.81046000 
O                  -0.62079000   -0.60870000   -0.88006000 
H                   1.94308000   -0.09565000   -0.96343000 
H                   2.69214000    0.91797000    1.51836000 
H                   1.38239000   -0.09712000    2.16222000 
H                   2.82178000   -0.82990000    1.43376000 
9
M3_conf_0_4
C                   0.00000000    0.00000000    0.00000000 
C                   1.47380000    0.00000000    0.00000000 
C                   2.14672000    0.00000000    1.32524000 
H                  -0.54419000   -0.42958000   -0.85709000 
O                  -0.62079000    0.51878000    0.93590000 
H                   2.09009000    0.08803000   -0.88667000 
H                   1.44878000   -0.19572000    2.13996000 
H                   2.98155000   -0.70849000    1.35678000 
H                   2.65780000    1.01321000    1.60377000 
10
M3_conf_0_5
C                   0.00000000    0.00000000    0.00000000 
C                   1.49670000    0.00000000    0.00000000 
C                   2.14428000    0.00000000    1.33780000 
H                  -0.39542000    0.95986000    0.36193000 
H                  -0.42186000   -0.19868000   -0.98622000 
H                  -0.37391000   -0.76328000    0.69259000 
H                   2.10360000   -0.08943000   -0.87289000 
H                   3.22780000    0.10245000    1.26932000 
H                   1.72627000    0.77337000    1.99131000 
H                   1.97289000   -0.97807000    1.95376000 
14
M3_conf_0_6
C                   0.00000000    0.00000000    0.00000000 
S                   1.86180000    0.00000000    0.00000000 
C                  -0.70157000    0.00000000   -1.20494000 
C                  -0.66704000   -0.09921000    1.22504000 
C                  -2.09561000   -0.07241000   -1.17702000 
H                  -0.16172000    0.05284000   -2.14450000 
C                  -2.05962000   -0.16993000    1.23443000 
H                  -0.11482000   -0.11737000    2.16068000 
C                  -2.79587000   -0.15913000    0.03679000 
H                  -2.64637000   -0.06456000   -2.11367000 
H                  -2.58153000   -0.24081000    2.18473000 
O                   2.27575000   -0.19672000   -1.43981000 
H                   2.10622000    1.39438000    0.33656000 
H                  -3.88529000   -0.24233000    0.05218000 
15
M3_conf_0_7
C                   0.00000000    0.00000000    0.00000000 
C                   1.50460000    0.00000000    0.00000000 
C                  -0.72185000    0.00000000   -1.20422000 
C                  -0.71629000    0.03399000    1.20926000 
C                  -2.11762000    0.03417000   -1.21154000 
H                  -0.18655000   -0.02376000   -2.14951000 
C                  -2.11021000    0.06890000    1.22047000 
H                  -0.17720000    0.03923000    2.15257000 
C                  -2.80011000    0.05413000    0.00414000 
H                  -2.67311000    0.04820000   -2.14333000 
H                  -2.64623000    0.10324000    2.16503000 
H                   1.89075000    1.02227000    0.09627000 
H                   1.90253000   -0.57838000    0.83903000 
H                   1.90356000   -0.41682000   -0.92877000 
H                  -3.92811000    0.13982000    0.02240000 
5
M3_conf_0_8
C                   0.00000000    0.00000000    0.00000000 
H                   1.09440000    0.00000000    0.00000000 
H                  -0.38464000    0.00000000   -1.02277000 
H                  -0.32515000    0.88968000    0.54734000 
H                  -0.32952000   -0.88559000    0.55016000 
5
M3_conf_0_9
C                   0.00000000    0.00000000    0.00000000 
H                   1.09350000    0.00000000    0.00000000 
H                  -0.39746000    0.00000000   -1.01785000 
H                  -0.32604000   -0.89641000    0.54181000 
H                  -0.34694000    0.87021000    0.56382000 
5
M3_conf_0_10
C                   0.00000000    0.00000000    0.00000000 
H                   1.09820000    0.00000000    0.00000000 
H                  -0.39870000    0.00000000   -1.01736000 
H                  -0.33060000    0.89319000    0.54435000 
H                  -0.34713000   -0.87118000    0.56337000 
15
M3_conf_0_11
C                   0.00000000    0.00000000    0.00000000 
C                   1.50950000    0.00000000    0.00000000 
H                   1.90977000    0.00000000    1.02137000 
C                  -0.72185000    1.19891000   -0.11291000 
C                  -0.71629000   -1.20075000    0.14722000 
C                  -2.11762000    1.20940000   -0.07958000 
H                  -0.18655000    2.13782000   -0.22519000 
C                  -2.11021000   -1.20863000    0.18303000 
H                  -0.17720000   -2.13941000    0.24088000 
C                  -2.80011000    0.00095000    0.05428000 
H                  -2.67311000    2.13841000   -0.15297000 
H                  -2.64623000   -2.14582000    0.30578000 
H                   1.90743000   -0.88965000   -0.49700000 
H                   1.90846000    0.88560000   -0.50207000 
H                  -3.92811000   -0.00919000    0.14130000 
15
M3_conf_0_12
C                   0.00000000    0.00000000    0.00000000 
C                   1.50950000    0.00000000    0.00000000 
H                   1.90974000    0.00000000    1.01816000 
C                  -0.72185000   -0.68346000   -0.99148000 
C                  -0.71629000    0.71414000    0.97646000 
C                  -2.11762000   -0.65948000   -1.01689000 
H                  -0.18655000   -1.23953000   -1.75628000 
C                  -2.11021000    0.74924000    0.96588000 
H                  -0.17720000    1.25370000    1.75024000 
C                  -2.80011000    0.04692000   -0.02731000 
H                  -2.67311000   -1.17677000   -1.79203000 
H                  -2.64623000    1.31347000    1.72418000 
H                   1.89565000    0.89640000   -0.50077000 
H                   1.90846000   -0.87022000   -0.52827000 
H                  -3.92811000    0.12783000   -0.06091000 
15
M3_conf_0_13
C                   0.00000000    0.00000000    0.00000000 
C                   1.50950000    0.00000000    0.00000000 
H                   1.89474000    0.00000000    1.02329000 
C                  -0.72185000   -0.49306000    1.09865000 
C                  -0.71629000    0.46412000   -1.11717000 
C                  -2.11762000   -0.52723000    1.09134000 
H                  -0.18655000   -0.85843000    1.97080000 
C                  -2.11021000    0.43686000   -1.14169000 
H                  -0.17720000    0.84557000   -1.97993000 
C                  -2.80011000   -0.04769000   -0.02594000 
H                  -2.67311000   -0.92155000    1.93570000 
H                  -2.64623000    0.79228000   -2.01750000 
H                   1.89565000   -0.89323000   -0.50640000 
H                   1.90743000    0.87112000   -0.52881000 
H                  -3.92811000   -0.11839000   -0.07768000 
5
M3_conf_0_14
H                   0.00000000    0.00000000    0.00000000 
C                   1.09700000    0.00000000    0.00000000 
H                   1.44703000    0.00000000    1.03649000 
H                   1.48164000   -0.87112000   -0.53591000 
H                   1.42652000    0.93270000   -0.46584000 
5
M3_conf_0_15
H                   0.00000000    0.00000000    0.00000000 
C                   1.09700000    0.00000000    0.00000000 
H                   1.41850000    0.00000000    1.04506000 
H                   1.48164000    0.86877000   -0.53971000 
H                   1.42215000   -0.93449000   -0.46674000 
5
M3_conf_0_16
H                   0.00000000    0.00000000    0.00000000 
C                   1.09400000    0.00000000    0.00000000 
H                   1.42115000    0.00000000    1.04331000 
H                   1.49146000   -0.85422000   -0.55347000 
H                   1.42004000    0.94214000   -0.45768000 
4
M3_conf_0_17
S                   0.00000000    0.00000000    0.00000000 
O                   1.50430000    0.00000000    0.00000000 
H                  -0.37765000    0.00000000   -1.32576000 
H                  -0.43513000    1.33605000    0.37807000 
6
M3_conf_0_18
S                   0.00000000    0.00000000    0.00000000 
N                   1.79320000    0.00000000    0.00000000 
H                  -0.23155000    0.00000000   -1.35891000 
O                  -0.45185000   -1.35352000    0.49693000 
H                   2.28621000   -0.68208000   -0.55313000 
H                   2.27840000    0.75452000    0.39950000 
14
M3_conf_0_19
C                   0.00000000    0.00000000    0.00000000 
S                   1.81000000    0.00000000    0.00000000 
O                   2.28519000    0.00000000    1.43433000 
C                  -0.70157000   -0.16311000    1.19384000 
C                  -0.66704000    0.26413000   -1.20034000 
C                  -2.09561000   -0.08759000    1.17599000 
H                  -0.16172000   -0.34266000    2.11760000 
C                  -2.05962000    0.33547000   -1.20007000 
H                  -0.11482000    0.40878000   -2.12491000 
C                  -2.79587000    0.16264000   -0.01491000 
H                  -2.64637000   -0.22216000    2.10295000 
H                  -2.58153000    0.53434000   -2.13202000 
H                   2.05442000   -1.33599000   -0.52222000 
H                  -3.88529000    0.24716000   -0.01890000 
16
M3_conf_0_20
C                   0.00000000    0.00000000    0.00000000 
S                   1.81000000    0.00000000    0.00000000 
N                   1.91868000    0.00000000    1.77688000 
C                  -0.70157000    1.17130000   -0.28272000 
C                  -0.66704000   -1.21412000    0.19100000 
C                  -2.09561000    1.12717000   -0.34655000 
H                  -0.16172000    2.09703000   -0.45180000 
C                  -2.05962000   -1.23984000    0.12445000 
H                  -0.11482000   -2.12790000    0.39287000 
C                  -2.79587000   -0.07310000   -0.14605000 
H                  -2.64637000    2.03951000   -0.55870000 
H                  -2.58153000   -2.18025000    0.27852000 
O                   2.22395000    1.35346000   -0.52905000 
H                   1.39668000    0.68208000    2.30274000 
H                   2.34705000   -0.75452000    2.23679000 
H                  -3.88529000   -0.10758000   -0.22332000 
6
M3_conf_0_21
O                   0.00000000    0.00000000    0.00000000 
S                   1.51100000    0.00000000    0.00000000 
N                   1.99960000    0.00000000    1.71184000 
H                   1.88865000   -1.27567000   -0.36098000 
H                   1.70252000   -0.75432000    2.30933000 
H                   2.68147000    0.63506000    2.02179000 
14
M3_conf_0_22
N                   0.00000000    0.00000000    0.00000000 
C                   1.43470000    0.00000000    0.00000000 
C                   2.10141000    0.00000000    1.23049000 
C                   2.15884000   -0.01486000   -1.19890000 
C                   3.49927000   -0.01717000    1.26105000 
H                   1.52450000    0.01764000    2.14852000 
C                   3.55411000   -0.02138000   -1.16107000 
H                   1.63156000   -0.01378000   -2.14602000 
C                   4.22597000   -0.02580000    0.06727000 
H                   4.01603000   -0.01799000    2.21600000 
H                   4.11613000   -0.02483000   -2.09009000 
H                   5.31157000   -0.03372000    0.09175000 
H                  -0.52082000   -0.91938000    0.12398000 
H                  -0.49278000    0.80376000   -0.27472000 
6
M3_conf_0_23
N                   0.00000000    0.00000000    0.00000000 
C                   1.37890000    0.00000000    0.00000000 
H                  -0.52567000    0.00000000   -0.92496000 
H                  -0.50538000   -0.16965000    0.85444000 
H                   1.90556000    0.43688000   -0.81856000 
O                   2.00231000   -0.46355000    0.96276000 
16
M3_conf_0_24
S                   0.00000000    0.00000000    0.00000000 
N                   1.78020000    0.00000000    0.00000000 
C                   2.45903000    0.00000000    1.26814000 
C                   2.62870000    1.21945000    1.93354000 
C                   2.92905000   -1.19013000    1.83790000 
C                   3.26979000    1.24744000    3.17590000 
H                   2.26369000    2.13161000    1.47457000 
C                   3.57737000   -1.15352000    3.07345000 
H                   2.79274000   -2.12861000    1.31280000 
C                   3.74586000    0.06322000    3.74533000 
H                   3.40044000    2.19371000    3.69210000 
H                   3.94906000   -2.07466000    3.51197000 
H                   4.24839000    0.08642000    4.70768000 
H                  -0.23155000   -1.05548000    0.85593000 
O                  -0.45185000    1.23850000    0.73829000 
H                   2.26540000   -0.16495000   -0.83767000 
8
M3_conf_0_25
S                   0.00000000    0.00000000    0.00000000 
N                   1.78020000    0.00000000    0.00000000 
C                   2.45715000    0.00000000    1.22831000 
H                  -0.23155000    1.20096000   -0.63588000 
O                  -0.45185000   -1.07252000   -0.96367000 
H                   2.27321000    0.16967000   -0.86163000 
H                   1.99446000   -0.43688000    2.08466000 
O                   3.60123000    0.46355000    1.30960000 
16
M3_conf_0_26
C                   0.00000000    0.00000000    0.00000000 
N                   1.43840000    0.00000000    0.00000000 
C                   2.20185000    0.00000000    1.17650000 
C                  -0.66671000    1.16435000   -0.39797000 
C                  -0.72414000   -1.13927000    0.37369000 
C                  -2.06457000    1.18772000   -0.42410000 
H                  -0.08980000    2.03876000   -0.67819000 
C                  -2.11941000   -1.10559000    0.35529000 
H                  -0.19686000   -2.03514000    0.68103000 
C                  -2.79127000    0.05531000   -0.04617000 
H                  -2.58133000    2.09108000   -0.73372000 
H                  -2.68143000   -1.98579000    0.65249000 
H                  -3.87687000    0.07591000   -0.06158000 
H                   1.95922000   -0.18019000   -0.91004000 
H                   3.23341000    0.26911000    1.13494000 
O                   1.67331000   -0.26718000    2.26263000 
4
M3_conf_0_27
C                   0.00000000    0.00000000    0.00000000 
O                   1.23140000    0.00000000    0.00000000 
H                  -0.53538000    0.00000000   -0.92284000 
H                  -0.55553000    0.03971000    0.95137000 
8
M3_conf_0_28
C                   0.00000000    0.00000000    0.00000000 
C                   1.47380000    0.00000000    0.00000000 
N                   2.05340000    0.00000000    1.27713000 
H                  -0.61629000    0.47599000    0.75324000 
H                  -0.46928000   -0.43381000   -0.86553000 
O                   2.09459000    0.04444000   -1.06914000 
H                   1.52757000   -0.43553000    2.09304000 
H                   3.02141000    0.25265000    1.39281000 
6
M3_conf_0_29
C                   0.00000000    0.00000000    0.00000000 
C                   1.47380000    0.00000000    0.00000000 
O                   2.14413000    0.00000000    1.03975000 
H                  -0.61629000   -0.50686000   -0.73282000 
H                  -0.46928000    0.46937000    0.84677000 
H                   2.01799000   -0.03981000   -0.95789000 
6
M3_conf_0_30
N                   0.00000000    0.00000000    0.00000000 
C                   1.40250000    0.00000000    0.00000000 
O                   2.07192000    0.00000000    1.04033000 
H                  -0.52567000   -0.40126000   -0.83339000 
H                  -0.50538000    0.21782000    0.84345000 
H                   1.92916000    0.03853000   -0.92705000 
5
M3_conf_0_31
C                   0.00000000    0.00000000    0.00000000 
H                   1.09470000    0.00000000    0.00000000 
H                  -0.38967000    0.00000000   -1.01090000 
H                  -0.34651000    0.85258000    0.58574000 
H                  -0.30386000   -0.91733000    0.51794000 
5
M3_conf_0_32
C                   0.00000000    0.00000000    0.00000000 
H                   1.09450000    0.00000000    0.00000000 
H                  -0.41896000    0.00000000   -0.99911000 
H                  -0.34921000   -0.86940000    0.57522000 
H                  -0.34244000    0.88501000    0.54916000 
5
M3_conf_0_33
C                   0.00000000    0.00000000    0.00000000 
H                   1.09120000    0.00000000    0.00000000 
H                  -0.36948000    0.00000000   -1.01845000 
H                  -0.30470000    0.91306000    0.53120000 
H                  -0.34073000   -0.86388000    0.57244000 
7
M3_conf_0_34
C                   0.00000000    0.00000000    0.00000000 
C                   1.49670000    0.00000000    0.00000000 
H                   1.87704000    0.00000000    1.03151000 
H                  -0.60690000   -0.78520000   -0.39166000 
H                  -0.52538000    0.87852000    0.33126000 
H                   1.91856000   -0.85260000   -0.53401000 
H                   1.87061000    0.91735000   -0.46984000 
7
M3_conf_0_35
C                   0.00000000    0.00000000    0.00000000 
C                   1.49670000    0.00000000    0.00000000 
H                   1.87481000    0.00000000    1.02328000 
H                  -0.60690000    0.08471000    0.87336000 
H                  -0.52538000   -0.18542000   -0.92041000 
H                   1.89212000    0.86938000   -0.54452000 
H                   1.87061000   -0.88512000   -0.52806000 
7
M3_conf_0_36
C                   0.00000000    0.00000000    0.00000000 
C                   1.49670000    0.00000000    0.00000000 
H                   1.89479000    0.00000000    1.02158000 
H                  -0.60690000    0.70654000   -0.52033000 
H                  -0.52538000   -0.69532000    0.63092000 
H                   1.89212000   -0.91304000   -0.46763000 
H                   1.91856000    0.86396000   -0.51543000 
5
M3_conf_0_37
H                   0.00000000    0.00000000    0.00000000 
C                   1.09940000    0.00000000    0.00000000 
H                   1.43016000    0.00000000    1.03955000 
H                   1.48907000   -0.83321000   -0.57243000 
H                   1.40326000    0.94635000   -0.46279000 
5
M3_conf_0_38
H                   0.00000000    0.00000000    0.00000000 
C                   1.09940000    0.00000000    0.00000000 
H                   1.45472000    0.00000000    1.03723000 
H                   1.48907000    0.88027000   -0.49702000 
H                   1.44591000   -0.92924000   -0.45443000 
5
M3_conf_0_39
H                   0.00000000    0.00000000    0.00000000 
C                   1.09090000    0.00000000    0.00000000 
H                   1.43680000    0.00000000    1.04041000 
H                   1.50986000   -0.84895000   -0.52678000 
H                   1.44011000    0.94716000   -0.43545000 
5
M3_conf_0_40
C                   0.00000000    0.00000000    0.00000000 
H                   1.09440000    0.00000000    0.00000000 
H                  -0.40495000    0.00000000   -0.99678000 
H                  -0.38362000    0.83645000    0.59421000 
H                  -0.30085000   -0.93019000    0.64002000 
5
M3_conf_0_41
C                   0.00000000    0.00000000    0.00000000 
H                   1.09270000    0.00000000    0.00000000 
H                  -0.39886000    0.00000000   -0.99924000 
H                  -0.38190000   -0.83064000    0.59446000 
H                  -0.25769000    0.95673000    0.61941000 
8
M3_conf_0_42
C                   0.00000000    0.00000000    0.00000000 
S                   1.86640000    0.00000000    0.00000000 
H                  -0.44172000    0.00000000   -0.98104000 
H                  -0.28077000    0.88203000    0.57652000 
H                  -0.24157000   -0.91351000    0.55411000 
O                   2.35254000    1.15370000   -0.78877000 
O                   2.32030000   -1.35969000   -0.38091000 
H                   2.18669000    0.20631000    1.31596000 
7
M3_conf_0_43
C                   0.00000000    0.00000000    0.00000000 
C                   1.48630000    0.00000000    0.00000000 
H                   1.86677000    0.00000000    1.02197000 
H                  -0.46535000    0.18598000    0.94188000 
H                  -0.52904000   -0.09587000   -0.94057000 
H                   1.89239000   -0.83651000   -0.57901000 
H                   1.96604000    0.93017000   -0.51964000 
7
M3_conf_0_44
C                   0.00000000    0.00000000    0.00000000 
C                   1.48630000    0.00000000    0.00000000 
H                   1.93847000    0.00000000    0.99772000 
H                  -0.46535000    0.66860000   -0.68898000 
H                  -0.52904000   -0.71871000    0.61427000 
H                   1.89675000    0.83072000   -0.57500000 
H                   1.96604000   -0.95675000   -0.46891000 
10
M3_conf_0_45
C                   0.00000000    0.00000000    0.00000000 
C                   1.48630000    0.00000000    0.00000000 
S                   2.40110000    0.00000000    1.63016000 
H                  -0.46535000   -0.91297000   -0.29699000 
H                  -0.52904000    0.86788000    0.37503000 
H                   1.89675000   -0.88201000   -0.49273000 
H                   1.89239000    0.91353000   -0.44773000 
O                   1.95115000   -1.15370000    2.44011000 
O                   2.29105000    1.35969000    2.21240000 
H                   3.70545000   -0.20631000    1.26546000 
5
M3_conf_0_46
H                   0.00000000    0.00000000    0.00000000 
C                   1.09050000    0.00000000    0.00000000 
H                   1.43608000    0.00000000    1.03946000 
H                   1.49545000   -0.81261000   -0.57727000 
H                   1.39135000    1.06047000   -0.38766000 
8
M3_conf_0_47
H                   0.00000000    0.00000000    0.00000000 
C                   1.09050000    0.00000000    0.00000000 
S                   1.42185000    0.00000000    1.83970000 
H                   1.49545000    0.82118000   -0.56501000 
H                   1.47412000   -0.96366000   -0.35227000 
O                   0.98233000    1.29146000    2.41282000 
O                   2.82744000   -0.42531000    2.04774000 
H                   0.59990000   -0.98849000    2.31318000 
8
M3_conf_0_48
H                   0.00000000    0.00000000    0.00000000 
C                   1.09540000    0.00000000    0.00000000 
S                   1.50954000    0.00000000    1.82285000 
H                   1.49426000   -0.83879000   -0.54305000 
H                   1.47730000    0.95037000   -0.37436000 
O                   2.97807000   -0.07582000    1.98773000 
O                   0.66909000   -1.03085000    2.47926000 
H                   1.08698000    1.23215000    2.24730000 
5
M3_conf_0_49
S                   0.00000000    0.00000000    0.00000000 
O                   1.48330000    0.00000000    0.00000000 
H                  -0.46771000    0.00000000   -1.34458000 
O                  -0.70795000   -1.08179000    0.72693000 
H                  -0.43516000    1.20284000    0.49062000 
5
M3_conf_0_50
S                   0.00000000    0.00000000    0.00000000 
O                   1.48020000    0.00000000    0.00000000 
H                  -0.43566000    0.00000000   -1.35530000 
O                  -0.70628000    1.07068000    0.73779000 
H                  -0.42903000   -1.21155000    0.47431000 
15
M3_conf_0_51
S                   0.00000000    0.00000000    0.00000000 
C                   1.80010000    0.00000000    0.00000000 
C                   2.47753000    0.00000000    1.22313000 
C                   2.48005000   -0.01428000   -1.22154000 
C                   3.87387000   -0.01218000    1.21658000 
H                   1.92538000    0.02220000    2.15628000 
C                   3.87665000   -0.02743000   -1.21142000 
H                   1.93058000   -0.00188000   -2.15634000 
C                   4.57025000   -0.02786000    0.00330000 
H                   4.41493000   -0.00561000    2.15737000 
H                   4.42001000   -0.03284000   -2.15090000 
H                   5.65582000   -0.03663000    0.00433000 
H                  -0.33282000   -1.38403000   -0.01836000 
O                  -0.47001000    0.59651000    1.26995000 
O                  -0.46448000    0.59552000   -1.27652000 
8
M3_conf_0_52
C                   0.00000000    0.00000000    0.00000000 
S                   1.86930000    0.00000000    0.00000000 
O                   2.22727000    0.00000000    1.43575000 
H                  -0.44172000    0.80986000    0.55369000 
H                  -0.28077000   -0.97374000    0.40274000 
H                  -0.24157000    0.05797000   -1.06686000 
O                   2.32320000    1.08169000   -0.90764000 
H                   2.18959000   -1.20288000   -0.57220000 
8
M3_conf_0_53
C                   0.00000000    0.00000000    0.00000000 
S                   1.86930000    0.00000000    0.00000000 
O                   2.37488000    0.00000000    1.39437000 
H                  -0.44172000   -0.94467000    0.26465000 
H                  -0.28077000    0.31739000   -1.00480000 
H                  -0.24157000    0.78000000    0.73017000 
O                   2.35544000   -1.07060000   -0.89834000 
H                   2.18959000    1.21152000   -0.55365000 
18
M3_conf_0_54
C                   0.00000000    0.00000000    0.00000000 
S                   1.86930000    0.00000000    0.00000000 
C                   2.42164000    0.00000000    1.71211000 
C                   2.64507000    1.22302000    2.35185000 
C                   2.60138000   -1.22124000    2.36858000 
C                   3.06210000    1.21663000    3.68450000 
H                   2.50845000    2.15580000    1.81575000 
C                   3.01780000   -1.21095000    3.70172000 
H                   2.43268000   -2.15612000    1.84565000 
C                   3.24567000    0.00367000    4.35701000 
H                   3.24635000    2.15725000    4.19359000 
H                   3.16761000   -2.15027000    4.22432000 
H                   3.57063000    0.00482000    5.39283000 
H                  -0.44172000    0.15195000   -0.96920000 
H                  -0.28077000    0.78197000    0.70632000 
H                  -0.24157000   -0.98831000    0.40594000 
O                   2.35544000    1.26205000   -0.60035000 
O                   2.32320000   -1.28429000   -0.58691000 
5
M3_conf_0_55
O                   0.00000000    0.00000000    0.00000000 
S                   1.47970000    0.00000000    0.00000000 
O                   2.19560000    0.00000000    1.29899000 
H                   1.94741000    1.11602000   -0.74993000 
H                   1.91486000   -1.07810000   -0.72473000 
15
M3_conf_0_56
O                   0.00000000    0.00000000    0.00000000 
S                   1.47970000    0.00000000    0.00000000 
C                   2.02067000    0.00000000    1.71574000 
C                   1.16853000   -0.52001000    2.69472000 
C                   3.28540000    0.50640000    2.02991000 
C                   1.59901000   -0.52825000    4.02309000 
H                   0.18797000   -0.89664000    2.42495000 
C                   3.70196000    0.49021000    3.36295000 
H                   3.92209000    0.91506000    1.25303000 
C                   2.86212000   -0.02662000    4.35502000 
H                   0.94693000   -0.92227000    4.79601000 
H                   4.67853000    0.88472000    3.62477000 
H                   3.19122000   -0.03500000    5.38950000 
H                   1.94741000   -1.24499000   -0.50782000 
O                   2.18765000    1.08166000   -0.72712000 
15
M3_conf_0_57
O                   0.00000000    0.00000000    0.00000000 
S                   1.48320000    0.00000000    0.00000000 
C                   2.04479000    0.00000000    1.70910000 
C                   3.30932000   -0.51711000    2.00666000 
C                   1.21111000    0.52938000    2.69875000 
C                   3.74446000   -0.50330000    3.33345000 
H                   3.93143000   -0.93175000    1.22104000 
C                   1.66107000    0.53702000    4.02096000 
H                   0.22979000    0.91336000    2.44283000 
C                   2.92358000    0.02385000    4.33621000 
H                   4.72069000   -0.90700000    3.58220000 
H                   1.02403000    0.93911000    4.80223000 
H                   3.26687000    0.03136000    5.36607000 
H                   1.91886000    1.26203000   -0.49408000 
O                   2.18948000   -1.07746000   -0.72785000 
12
M3_frag_conf_0_0
C                   2.51079200   -2.08524600   -0.07246200 
C                   3.08736100   -1.74419800    1.15319000 
C                   3.13986700   -1.80102100   -1.28954200 
C                   4.32711200   -1.10004200    1.15563600 
H                   2.58118000   -1.98382400    2.08079000 
C                   4.37555500   -1.15181700   -1.27106200 
H                   2.68421100   -2.09561700   -2.22863900 
C                   4.96750700   -0.80433800   -0.05139300 
H                   4.79018800   -0.83287800    2.10010200 
H                   4.87803300   -0.92763300   -2.20654700 
H                   5.93149800   -0.30505500   -0.04285800 
H                   1.53273777   -2.64138460   -0.08450157 
12
M3_frag_conf_0_1
C                   0.94702900    2.43901300    0.07862600 
C                   2.22179500    2.31810200   -0.48643700 
C                   0.55761700    3.62692100    0.70707700 
C                   3.11320500    3.39065500   -0.41362200 
H                   2.50836900    1.39052000   -0.97135200 
C                   1.45423900    4.69600600    0.77696400 
H                  -0.43433500    3.70600600    1.13800200 
C                   2.73050300    4.57941500    0.21705800 
H                   4.10370700    3.29723700   -0.84809700 
H                   1.15481100    5.61755200    1.26651700 
H                   3.42504000    5.41227400    0.27173100 
H                   0.22616495    1.57412894    0.01481212 
12
M3_frag_conf_0_2
C                  -2.38123400    0.30365300   -0.45445300 
C                  -3.09982800    1.02008200    0.56247900 
C                  -3.14345700   -0.58581700   -1.28434300 
C                  -4.41182000    0.70237400    0.85003900 
H                  -2.59675700    1.79915200    1.12667300 
C                  -4.45638500   -0.89235600   -0.96846900 
H                  -2.68209700   -1.04024800   -2.15615200 
C                  -5.12082900   -0.27486600    0.11196700 
H                  -4.91853000    1.23190800    1.65263200 
H                  -4.99516800   -1.60415900   -1.58795800 
H                  -1.58285946    0.91565643   -1.03962446 
H                  -6.14802396   -0.53278224    0.36612844 
