6
Conf_0 frag_0
C                   0.00000000    0.00000000    0.00000000 
C                   1.40460000    0.00000000    0.00000000 
H                  -0.61373000    0.00000000   -0.89365000 
C                  -0.44215000   -0.00000000    1.26898000 
H                   2.01833000   -0.00000000   -0.89365000 
C                   1.84675000    0.00000000    1.26898000 
4
Conf_0 frag_1
C                   0.00000000    0.00000000    0.00000000 
H                   1.08420000    0.00000000    0.00000000 
H                  -0.60258000    0.00000000   -0.87741000 
O                  -0.70158000   -0.00000000    0.95474000 
6
Conf_0 frag_2
C                   0.00000000    0.00000000    0.00000000 
C                   1.38960000    0.00000000    0.00000000 
H                  -0.35022000    0.00000000   -1.00513000 
H                  -0.64195000   -0.00000000    0.87359000 
H                   2.03961000    0.00000000    0.86637000 
H                   1.74752000   -0.00000000   -1.02723000 
6
Conf_0 frag_3
C                   0.00000000    0.00000000    0.00000000 
C                   1.47030000    0.00000000    0.00000000 
H                   2.10107000    0.00000000    0.88170000 
H                  -0.61373000   -0.00000000    0.89365000 
O                  -0.38984000    0.00000000   -1.11883000 
O                   1.86014000   -0.00000000   -1.11883000 
8
Conf_0 frag_4
C                   0.00000000    0.00000000    0.00000000 
C                   1.47030000    0.00000000    0.00000000 
C                   1.90136000    0.00000000    1.27279000 
H                  -0.61373000    0.00000000   -0.89365000 
O                  -0.38984000    0.00000000    1.11883000 
H                   2.08403000   -0.00000000   -0.89365000 
H                   2.93045000   -0.00000000    1.61054000 
H                   1.04323000    0.00000000    1.94130000 
6
Conf_0 frag_5
H                   0.00000000    0.00000000    0.00000000 
C                   1.08410000    0.00000000    0.00000000 
C                   1.85909000    0.00000000    1.09781000 
H                   1.68668000   -0.00000000   -0.87741000 
H                   1.52620000    0.00000000    2.12848000 
H                   2.90470000   -0.00000000    0.79779000 
4
Conf_0 frag_6
C                   0.00000000    0.00000000    0.00000000 
H                   1.08480000    0.00000000    0.00000000 
H                  -0.60258000    0.00000000   -0.87741000 
O                  -0.70158000   -0.00000000    0.95474000 
6
Conf_0 frag_7
C                   0.00000000    0.00000000    0.00000000 
C                   1.39810000    0.00000000    0.00000000 
H                  -0.35022000    0.00000000   -1.00513000 
H                  -0.64195000   -0.00000000    0.87359000 
H                   2.04811000    0.00000000    0.86637000 
H                   1.75602000   -0.00000000   -1.02723000 
6
Conf_0 frag_8
C                   0.00000000    0.00000000    0.00000000 
C                   1.47030000    0.00000000    0.00000000 
H                   2.09645000    0.00000000    0.88499000 
H                  -0.61373000   -0.00000000    0.89365000 
O                  -0.38984000    0.00000000   -1.11883000 
O                   1.86014000   -0.00000000   -1.11883000 
8
Conf_0 frag_9
C                   0.00000000    0.00000000    0.00000000 
C                   1.47030000    0.00000000    0.00000000 
C                   1.90780000    0.00000000    1.27059000 
H                  -0.61373000    0.00000000   -0.89365000 
O                  -0.38984000    0.00000000    1.11883000 
H                   2.08403000   -0.00000000   -0.89365000 
H                   2.93859000   -0.00000000    1.60313000 
H                   1.05306000    0.00000000    1.94344000 
6
Conf_0 frag_10
H                   0.00000000    0.00000000    0.00000000 
C                   1.08410000    0.00000000    0.00000000 
C                   1.85986000    0.00000000    1.09727000 
H                   1.68668000   -0.00000000   -0.87741000 
H                   1.52768000    0.00000000    2.12817000 
H                   2.90526000   -0.00000000    0.79652000 
8
Conf_0 frag_11
C                   0.00000000    0.00000000    0.00000000 
C                   1.53530000    0.00000000    0.00000000 
H                  -0.43000000    0.00000000   -1.00519000 
H                  -0.43000000    0.85105000    0.53490000 
H                  -0.29447000   -0.93640000    0.51735000 
H                   1.80148000   -0.92817000    0.51301000 
H                   1.95686000    0.86453000    0.52461000 
H                   1.95686000    0.01571000   -1.01113000 
5
Conf_0 frag_12
C                   0.00000000    0.00000000    0.00000000 
H                   1.09220000    0.00000000    0.00000000 
H                  -0.43743000    0.00000000   -1.02257000 
H                  -0.32275000   -0.85104000    0.60570000 
H                  -0.35997000    0.93635000    0.47422000 
5
Conf_0 frag_13
C                   0.00000000    0.00000000    0.00000000 
H                   1.09670000    0.00000000    0.00000000 
H                  -0.43743000    0.00000000   -1.02257000 
H                  -0.32275000    0.85104000    0.60570000 
H                  -0.35979000   -0.93641000    0.47424000 
7
Conf_0 frag_14
C                   0.00000000    0.00000000    0.00000000 
C                   1.53140000    0.00000000    0.00000000 
H                  -0.29516000    0.00000000   -1.07232000 
H                  -0.35468000   -0.87979000    0.54358000 
H                  -0.35450000    0.87984000    0.54361000 
H                   1.84929000    0.00018000   -1.02692000 
O                   2.23735000    0.00000000    0.98062000 
8
Conf_0 frag_15
C                   0.00000000    0.00000000    0.00000000 
C                   1.53640000    0.00000000    0.00000000 
H                   1.98961000    0.00000000    0.99494000 
H                  -0.26618000   -0.92817000   -0.51301000 
H                  -0.42156000    0.86453000   -0.52461000 
H                  -0.42156000    0.01571000    1.01113000 
H                   1.96640000    0.85105000   -0.53490000 
H                   1.83087000   -0.93640000   -0.51735000 
8
Conf_0 frag_16
C                   0.00000000    0.00000000    0.00000000 
C                   1.53640000    0.00000000    0.00000000 
H                   1.93568000    0.00000000    1.01778000 
H                  -0.26618000    0.92834000   -0.51269000 
H                  -0.42156000   -0.01588000    1.01112000 
H                  -0.42156000   -0.86435000   -0.52491000 
H                   1.96640000   -0.85105000   -0.53490000 
H                   1.83087000    0.93640000   -0.51735000 
10
Conf_0 frag_17
C                   0.00000000    0.00000000    0.00000000 
C                   1.53640000    0.00000000    0.00000000 
C                   1.93366000    0.00000000    1.48053000 
H                  -0.26618000   -0.00019000    1.06050000 
H                  -0.42156000   -0.87735000   -0.50287000 
H                  -0.42156000    0.87744000   -0.50272000 
H                   1.96640000    0.87984000   -0.48610000 
H                   1.96640000   -0.87984000   -0.48610000 
H                   1.02420000   -0.00018000    2.05369000 
O                   3.06373000   -0.00000000    1.90822000 
5
Conf_0 frag_18
H                   0.00000000    0.00000000    0.00000000 
C                   1.09330000    0.00000000    0.00000000 
H                   1.42243000    0.00000000    1.04258000 
H                   1.53073000    0.83311000   -0.59294000 
H                   1.45327000   -0.92930000   -0.48789000 
7
Conf_0 frag_19
H                   0.00000000    0.00000000    0.00000000 
C                   1.09330000    0.00000000    0.00000000 
C                   1.62487000    0.00000000    1.43778000 
H                   1.53073000   -0.91225000   -0.46201000 
H                   1.41605000    0.92486000   -0.48556000 
H                   2.24152000   -0.87353000    1.54871000 
O                   1.38622000    0.83424000    2.27867000 
7
Conf_0 frag_20
H                   0.00000000    0.00000000    0.00000000 
C                   1.09330000    0.00000000    0.00000000 
C                   1.56572000    0.00000000    1.45829000 
H                   1.53073000    0.91225000   -0.46201000 
H                   1.41605000   -0.92486000   -0.48556000 
H                   2.17704000    0.87372000    1.59440000 
O                   1.29294000   -0.83424000    2.28873000 
7
Conf_0 frag_21
C                   0.00000000    0.00000000    0.00000000 
C                   1.52550000    0.00000000    0.00000000 
H                  -0.27076000    0.00000000   -1.07874000 
H                  -0.38494000   -0.87739000    0.53137000 
H                  -0.38494000    0.87739000    0.53137000 
O                   1.99280000    0.00000000   -1.08091000 
H                   2.09487000    0.00000000    0.92478000 
5
Conf_0 frag_22
C                   0.00000000    0.00000000    0.00000000 
H                   1.09410000    0.00000000    0.00000000 
H                  -0.42795000    0.00000000   -1.02657000 
H                  -0.38417000    0.92009000    0.44876000 
H                  -0.30952000   -0.87252000    0.58587000 
5
Conf_0 frag_23
C                   0.00000000    0.00000000    0.00000000 
H                   1.09650000    0.00000000    0.00000000 
H                  -0.42795000    0.00000000   -1.02657000 
H                  -0.38417000   -0.92009000    0.44876000 
H                  -0.30952000    0.87252000    0.58587000 
10
Conf_0 frag_24
C                   0.00000000    0.00000000    0.00000000 
C                   1.53640000    0.00000000    0.00000000 
C                   1.90464000    0.00000000    1.46493000 
H                  -0.43000000   -0.87975000   -0.48625000 
H                  -0.43000000    0.87992000   -0.48594000 
H                  -0.29447000   -0.00019000    1.06981000 
H                   1.95796000    0.87735000   -0.50287000 
H                   1.95796000   -0.87735000   -0.50287000 
O                   0.97026000    0.00000000    2.18164000 
H                   2.94032000   -0.00000000    1.79167000 
8
Conf_0 frag_25
C                   0.00000000    0.00000000    0.00000000 
C                   1.53640000    0.00000000    0.00000000 
H                   1.96519000    0.00000000    1.00821000 
H                  -0.43000000    0.85935000   -0.52147000 
H                  -0.43000000   -0.01579000    1.00507000 
H                  -0.29447000   -0.92816000   -0.53199000 
H                   1.80258000   -0.92009000   -0.52736000 
H                   1.95796000    0.87257000   -0.51112000 
8
Conf_0 frag_26
C                   0.00000000    0.00000000    0.00000000 
C                   1.53640000    0.00000000    0.00000000 
H                   1.92062000    0.00000000    1.02602000 
H                  -0.43000000    0.01561000    1.00507000 
H                  -0.43000000   -0.85917000   -0.52177000 
H                  -0.29447000    0.92825000   -0.53183000 
H                   1.80258000    0.92009000   -0.52736000 
H                   1.95796000   -0.87257000   -0.51112000 
7
Conf_0 frag_27
C                   0.00000000    0.00000000    0.00000000 
C                   1.51050000    0.00000000    0.00000000 
H                   1.93647000    0.00000000    1.00940000 
O                  -0.46730000    0.92457000   -0.55994000 
H                  -0.56937000   -0.79094000    0.47920000 
H                   1.78126000    0.92271000   -0.55882000 
H                   1.89544000   -0.90910000   -0.47507000 
7
Conf_0 frag_28
C                   0.00000000    0.00000000    0.00000000 
C                   1.51050000    0.00000000    0.00000000 
H                   1.86828000    0.00000000    1.03554000 
O                  -0.46730000   -0.92457000   -0.55994000 
H                  -0.56937000    0.79102000    0.47906000 
H                   1.78126000   -0.92271000   -0.55882000 
H                   1.89544000    0.90910000   -0.47507000 
5
Conf_0 frag_29
H                   0.00000000    0.00000000    0.00000000 
C                   1.09560000    0.00000000    0.00000000 
H                   1.41958000    0.00000000    1.04660000 
H                   1.52355000    0.85227000   -0.57227000 
H                   1.47977000   -0.88547000   -0.51370000 
6
Conf_0 frag_30
C                   0.00000000    0.00000000    0.00000000 
C                   1.39430000    0.00000000    0.00000000 
H                  -0.43389000    0.00000000   -1.00362000 
H                  -0.62290000   -0.00000000    0.88960000 
H                   2.05245000    0.00000000    0.86020000 
H                   1.76074000    0.00000000   -1.01062000 
4
Conf_0 frag_31
C                   0.00000000    0.00000000    0.00000000 
H                   1.08620000    0.00000000    0.00000000 
H                  -0.57325000    0.00000000   -0.93108000 
O                  -0.67544000   -0.00000000    0.96463000 
9
Conf_0 frag_32
C                   0.00000000    0.00000000    0.00000000 
C                   1.51050000    0.00000000    0.00000000 
C                   1.97346000    0.00000000    1.25290000 
H                  -0.27076000    0.00000000    1.07874000 
H                  -0.38494000    0.87739000   -0.53137000 
H                  -0.38494000   -0.87739000   -0.53137000 
H                   2.07987000   -0.00000000   -0.92478000 
H                   3.00846000   -0.00000000    1.57210000 
H                   1.15251000    0.00000000    1.94691000 
7
Conf_0 frag_33
C                   0.00000000    0.00000000    0.00000000 
C                   1.51050000    0.00000000    0.00000000 
H                   2.03949000    0.00000000    0.94846000 
H                  -0.27076000    0.00000000   -1.07874000 
H                  -0.38494000   -0.87730000    0.53152000 
H                  -0.38494000    0.87739000    0.53137000 
O                   1.97780000   -0.00000000   -1.08091000 
6
Conf_0 frag_34
C                   0.00000000    0.00000000    0.00000000 
C                   1.33570000    0.00000000    0.00000000 
H                   1.90878000    0.00000000    0.92248000 
H                  -0.65815000    0.00000000    0.86020000 
H                  -0.36644000    0.00000000   -1.01062000 
H                   1.76959000   -0.00000000   -1.00362000 
4
Conf_0 frag_35
C                   0.00000000    0.00000000    0.00000000 
H                   1.08360000    0.00000000    0.00000000 
O                  -0.71557000    0.00000000   -0.93525000 
H                  -0.57981000   -0.00000000    0.90523000 
6
Conf_0 frag_36
C                   0.00000000    0.00000000    0.00000000 
C                   1.47810000    0.00000000    0.00000000 
C                  -0.45530000    0.00000000   -1.25570000 
H                  -0.58418000   -0.00000000    0.91205000 
H                   1.80622000   -0.00019000   -1.05998000 
C                   2.30403000    0.00000000    1.09367000 
6
Conf_0 frag_37
C                   0.00000000    0.00000000    0.00000000 
C                   1.33570000    0.00000000    0.00000000 
H                   1.97157000    0.00000000    0.87680000 
H                  -0.43389000    0.00000000   -1.00362000 
H                  -0.62290000    0.00000000    0.88960000 
H                   1.70214000   -0.00000000   -1.01062000 
8
Conf_0 frag_38
C                   0.00000000    0.00000000    0.00000000 
C                   1.33570000    0.00000000    0.00000000 
C                   1.84409000    0.00000000    1.39527000 
H                  -0.43389000    0.00000000    1.00362000 
H                  -0.62290000    0.00000000   -0.88960000 
H                   1.99385000   -0.00000000   -0.86020000 
H                   0.96049000    0.00019000    2.06644000 
O                   2.99934000   -0.00000000    1.74935000 
6
Conf_0 frag_39
H                   0.00000000    0.00000000    0.00000000 
C                   1.08310000    0.00000000    0.00000000 
C                   1.83590000    0.00000000    1.28005000 
O                   1.79867000   -0.00000000   -0.93525000 
H                   2.91592000   -0.00019000    1.02554000 
O                   1.37389000   -0.00017000    2.39653000 
4
Conf_0 frag_40
C                   0.00000000    0.00000000    0.00000000 
O                   1.21190000    0.00000000    0.00000000 
H                  -0.64828000    0.00000000   -0.90052000 
H                  -0.64785000   -0.00015000    0.85786000 
9
Conf_0 frag_41
C                   0.00000000    0.00000000    0.00000000 
C                   1.53290000    0.00000000    0.00000000 
C                   1.96732000    0.00000000    1.42004000 
H                  -0.29516000    0.00019000    1.07232000 
H                  -0.35468000    0.87969000   -0.54373000 
H                  -0.35450000   -0.87994000   -0.54346000 
O                   2.23885000   -0.00017000   -0.98062000 
O                   1.02611000    0.00019000    2.12775000 
H                   3.01037000   -0.00016000    1.71185000 
7
Conf_0 frag_42
C                   0.00000000    0.00000000    0.00000000 
C                   1.53290000    0.00000000    0.00000000 
O                   2.23731000    0.00000000    0.98173000 
H                  -0.29516000    0.00000000   -1.07232000 
H                  -0.35468000   -0.87979000    0.54358000 
H                  -0.35450000    0.87984000    0.54361000 
H                   1.85079000    0.00018000   -1.02692000 
6
Conf_0 frag_43
C                   0.00000000    0.00000000    0.00000000 
C                   1.48500000    0.00000000    0.00000000 
O                   2.21772000    0.00000000    0.96079000 
O                  -0.40141000    0.00000000   -1.10707000 
H                  -0.58418000    0.00016000    0.91205000 
H                   1.81312000   -0.00019000   -1.05998000 
4
Conf_0 frag_44
C                   0.00000000    0.00000000    0.00000000 
H                   1.08410000    0.00000000    0.00000000 
O                  -0.71105000    0.00000000   -0.94771000 
H                  -0.60672000   -0.00000000    0.90289000 
7
Conf_0 frag_45
C                   0.00000000    0.00000000    0.00000000 
C                   1.50400000    0.00000000    0.00000000 
O                  -0.38984000    0.00000000   -1.11883000 
H                  -0.60409000   -0.00000000    0.89899000 
H                   1.75166000    0.00000000   -1.05923000 
H                   1.91366000    0.87904000    0.51655000 
H                   1.91366000   -0.87904000    0.51655000 
6
Conf_0 frag_46
C                   0.00000000    0.00000000    0.00000000 
C                   1.34380000    0.00000000    0.00000000 
H                   1.96272000    0.00000000    0.88885000 
H                  -0.35022000    0.00000000   -1.00513000 
H                  -0.64195000    0.00000000    0.87359000 
H                   1.70172000   -0.00000000   -1.02723000 
9
Conf_0 frag_47
C                   0.00000000    0.00000000    0.00000000 
C                   1.34380000    0.00000000    0.00000000 
C                   1.78966000    0.00000000    1.43503000 
H                  -0.35022000   -0.00000000    1.00513000 
H                  -0.64195000    0.00000000   -0.87359000 
H                   1.99381000   -0.00000000   -0.86637000 
H                   0.85161000    0.00000000    1.98582000 
H                   2.40451000   -0.87904000    1.67298000 
H                   2.40451000    0.87904000    1.67298000 
7
Conf_0 frag_48
H                   0.00000000    0.00000000    0.00000000 
C                   1.08310000    0.00000000    0.00000000 
C                   1.92774000    0.00000000    1.24285000 
O                   1.79415000   -0.00000000   -0.94771000 
H                   2.94302000   -0.00000000    0.85231000 
H                   1.73077000    0.87904000    1.87202000 
H                   1.73077000   -0.87904000    1.87202000 
4
Conf_0 frag_49
C                   0.00000000    0.00000000    0.00000000 
H                   1.08570000    0.00000000    0.00000000 
O                  -0.71105000    0.00000000   -0.94771000 
H                  -0.60672000   -0.00000000    0.90289000 
7
Conf_0 frag_50
C                   0.00000000    0.00000000    0.00000000 
C                   1.50950000    0.00000000    0.00000000 
O                  -0.38984000    0.00000000   -1.11883000 
H                  -0.60409000   -0.00000000    0.89899000 
H                   1.75716000    0.00000000   -1.05923000 
H                   1.91916000   -0.87904000    0.51655000 
H                   1.91916000    0.87904000    0.51655000 
6
Conf_0 frag_51
C                   0.00000000    0.00000000    0.00000000 
C                   1.34380000    0.00000000    0.00000000 
H                   1.93987000    0.00000000    0.90433000 
H                  -0.35022000    0.00000000   -1.00513000 
H                  -0.64195000    0.00000000    0.87359000 
H                   1.70172000   -0.00000000   -1.02723000 
9
Conf_0 frag_52
C                   0.00000000    0.00000000    0.00000000 
C                   1.34380000    0.00000000    0.00000000 
C                   1.76531000    0.00000000    1.44237000 
H                  -0.35022000   -0.00000000    1.00513000 
H                  -0.64195000    0.00000000   -0.87359000 
H                   1.99381000   -0.00000000   -0.86637000 
H                   0.81807000    0.00000000    1.97720000 
H                   2.37603000    0.87904000    1.69069000 
H                   2.37603000   -0.87904000    1.69069000 
7
Conf_0 frag_53
H                   0.00000000    0.00000000    0.00000000 
C                   1.08310000    0.00000000    0.00000000 
C                   1.89668000    0.00000000    1.26340000 
O                   1.79415000   -0.00000000   -0.94771000 
H                   2.92133000   -0.00000000    0.89814000 
H                   1.68418000   -0.87904000    1.88750000 
H                   1.68418000    0.87904000    1.88750000 
5
Conf_0 frag_54
C                   0.00000000    0.00000000    0.00000000 
H                   1.10120000    0.00000000    0.00000000 
H                  -0.40556000    0.00000000   -1.00937000 
H                  -0.40556000   -0.91331000    0.42977000 
H                  -0.30766000    0.89064000    0.56522000 
5
Conf_0 frag_55
C                   0.00000000    0.00000000    0.00000000 
H                   1.09060000    0.00000000    0.00000000 
H                  -0.40556000    0.00000000   -1.00937000 
H                  -0.40556000    0.91331000    0.42977000 
H                  -0.30766000   -0.89064000    0.56522000 
9
Conf_0 frag_56
C                   0.00000000    0.00000000    0.00000000 
C                   1.50270000    0.00000000    0.00000000 
C                   1.75977000    0.00000000    1.48055000 
O                  -0.38984000    0.00000000    1.11883000 
H                  -0.60409000    0.00000000   -0.89899000 
H                   1.91236000   -0.87904000   -0.51655000 
H                   1.91236000    0.87904000   -0.51655000 
O                   0.72412000    0.00000000    2.05604000 
H                   2.74884000    0.00000000    1.92195000 
7
Conf_0 frag_57
C                   0.00000000    0.00000000    0.00000000 
C                   1.50270000    0.00000000    0.00000000 
H                   1.84134000    0.00000000    1.04532000 
O                  -0.38984000    0.96461000   -0.56684000 
H                  -0.60409000   -0.77507000    0.45546000 
H                   1.75036000    0.91323000   -0.53664000 
H                   1.91236000   -0.89062000   -0.49632000 
7
Conf_0 frag_58
C                   0.00000000    0.00000000    0.00000000 
C                   1.50270000    0.00000000    0.00000000 
H                   1.98507000    0.00000000    0.98726000 
O                  -0.38984000   -0.96461000   -0.56684000 
H                  -0.60409000    0.77507000    0.45546000 
H                   1.75036000   -0.91323000   -0.53664000 
H                   1.91236000    0.89062000   -0.49632000 
7
Conf_0 frag_59
C                   0.00000000    0.00000000    0.00000000 
C                   1.50270000    0.00000000    0.00000000 
H                   1.84097000    0.00000000    1.04543000 
O                  -0.38984000   -0.96461000   -0.56684000 
H                  -0.60409000    0.77507000    0.45546000 
H                   1.75036000   -0.91323000   -0.53664000 
H                   1.91236000    0.89062000   -0.49632000 
7
Conf_0 frag_60
C                   0.00000000    0.00000000    0.00000000 
C                   1.50270000    0.00000000    0.00000000 
H                   1.98524000    0.00000000    0.98717000 
O                  -0.38984000    0.96461000   -0.56684000 
H                  -0.60409000   -0.77507000    0.45546000 
H                   1.75036000    0.91323000   -0.53664000 
H                   1.91236000   -0.89062000   -0.49632000 
5
Conf_0 frag_61
H                   0.00000000    0.00000000    0.00000000 
C                   1.09880000    0.00000000    0.00000000 
H                   1.44582000    0.00000000    1.04256000 
H                   1.50436000   -0.85224000   -0.54085000 
H                   1.50436000    0.85224000   -0.54085000 
