6 

C                   0.21418610   -0.08506300    0.03154590 
H                   0.10136120    1.07714550   -0.01197580 
H                   1.18322470   -0.56956340    0.02132410 
H                  -0.72059410   -0.44028810    0.23422750 
Cl                 -0.04628400    0.01263850    2.34990590 
Cl                 -0.04347590    0.01461040   -2.36775380 

