6 

C                  -0.28951670   -0.01226600    0.67070970 
H                  -0.12151540    0.95380750    0.12024820 
H                   0.38360140   -0.71543870    0.23102740 
H                  -1.19897410   -0.45019450    0.66064050 
Cl                  0.07175740    0.00104550    2.73033170 
Cl                  0.05387090    0.01036490   -2.98893130 

