6 

C                   0.04849040   -0.11164720    0.60215920 
H                   0.05889870    0.97319270    0.16573290 
H                   0.93402010   -0.66847360    0.47576140 
H                  -0.87228840   -0.49433810    0.16125580 
Cl                 -0.00381430    0.02016190    2.42156510 
Cl                 -0.01653490    0.02375360   -2.65114830 

