6 

C                  -0.20722380   -0.05644040    0.84008280 
H                  -0.01176640    0.91693830    0.43784310 
H                   0.48714400   -0.63212220    0.41356290 
H                  -1.13954750   -0.50841360    0.52185770 
Cl                  0.04847070    0.01063050    2.63550310 
Cl                  0.04114560    0.01596920   -2.96278930 

