6 

C                   0.21881170   -0.08244830    0.02476200 
H                   0.10734870    1.11643060   -0.00585490 
H                   1.17363700   -0.55823130    0.00545180 
H                  -0.79531350   -0.47882750    0.21304910 
Cl                 -0.04582160    0.01220890    2.34837680 
Cl                 -0.04326650    0.01379520   -2.36300520 

