6 

C                   0.17272610   -0.12373660    0.19330470 
H                   0.23715480    1.09127620    0.00574730 
H                   1.15789810   -0.62755110    0.15182210 
H                  -0.69789190   -0.57557470   -0.33263840 
Cl                 -0.03810580    0.02507130    2.39543770 
Cl                 -0.04130710    0.02064000   -2.45668650 

