6 

C                  -0.47097210    0.10568430   -0.84233690 
H                  -0.82307650    1.24957050   -0.74510840 
H                   0.46602300    0.01559280   -0.21388450 
H                  -1.42657910   -0.48666980   -0.50607170 
Cl                  0.11447820   -0.04132920    2.98234380 
Cl                  0.09808900   -0.01710730   -2.65161240 

