6 

C                   0.20272840   -0.04359700    0.00038910 
H                   0.20558250    0.95338990    0.01801600 
H                   1.13606370   -0.55083360   -0.05703970 
H                  -0.80896980   -0.59937120    0.02257110 
Cl                 -0.04290130    0.01054200    2.34452890 
Cl                 -0.04202190    0.01009260   -2.34418830 

