6 

C                  -0.39059560    0.16063220   -0.80391940 
H                  -0.72315710    1.07034340   -0.69482700 
H                   0.42380530   -0.18009890   -0.17007800 
H                  -1.18868700   -0.59786550   -0.88316020 
Cl                  0.10157070   -0.03882670    2.91247660 
Cl                  0.07490890   -0.02446530   -2.58670020 

