6 

C                   0.00008380    0.06938780   -0.25930810 
H                   0.06371880    1.06132910   -0.13464280 
H                   0.99201430   -0.45576550   -0.16946710 
H                  -0.83668300   -0.71297140    0.03202290 
Cl                 -0.00431870   -0.01040070    2.38522790 
Cl                 -0.00217640   -0.01024300   -2.28839350 

