6 

C                  -0.52881270    0.16058200   -0.78097980 
H                  -0.81334240    1.06528910   -0.73803140 
H                   0.42751370   -0.10923280   -0.40159250 
H                  -1.27743610   -0.62610460   -0.71960240 
Cl                  0.11967620   -0.04222650    3.00862370 
Cl                  0.10927390   -0.02211480   -2.68762250 

