6 

C                   0.15938680   -0.00661880   -0.04835080 
H                   0.25389760    1.08755160    0.04533710 
H                   1.05658830   -0.57829280   -0.04985750 
H                  -0.75312880   -0.75813970   -0.31556950 
Cl                 -0.03407670    0.00586710    2.34059730 
Cl                 -0.03670150    0.00358270   -2.31477540 

