6 

C                  -0.53466090    0.13063410   -0.78440770 
H                  -1.09557120    1.25763590   -0.66112280 
H                   0.17149290    0.05142650    0.04796050 
H                  -1.39333300   -0.54683630   -0.79468990 
Cl                  0.13071150   -0.04393130    3.06318190 
Cl                  0.11912620   -0.02258650   -2.75413140 

