6 

C                  -0.08373240    0.07418490   -0.45707740 
H                  -0.21673070    1.15055990   -0.09797410 
H                   0.66664910   -0.33057700    0.07829280 
H                  -0.88821230   -0.52127440   -0.14793080 
Cl                  0.02169850   -0.01815430    2.48057980 
Cl                  0.01942910   -0.01580140   -2.31895700 

