6 

C                   0.02279210    0.04261990   -0.22229880 
H                   0.12405760    1.16427890   -0.15623480 
H                   0.96006250   -0.42890960   -0.09100690 
H                  -0.80180750   -0.71473040    0.17985760 
Cl                 -0.00941620   -0.00874080    2.37011000 
Cl                 -0.00667830   -0.00641910   -2.29187240 

