6 

C                  -0.01122200   -0.11790370    0.57709890 
H                   0.19806750    0.98845130    0.35983290 
H                   0.85247700   -0.65946830    0.25961400 
H                  -0.86357250   -0.67158580    0.30851230 
Cl                  0.00509110    0.02625930    2.49497900 
Cl                 -0.00695430    0.02427770   -2.71950780 

