6 

C                  -0.39363990    0.15921700   -0.72083160 
H                  -0.70914490    1.12537640   -0.41629270 
H                   0.59551190   -0.14046880   -0.21607230 
H                  -1.36508390   -0.58372070   -0.57383810 
Cl                  0.09400320   -0.03736730    2.86733990 
Cl                  0.08327660   -0.02859130   -2.58564440 

