6 

C                  -0.09851910   -0.09481640    0.46579180 
H                   0.14511380    0.87175370    0.16188320 
H                   0.70429900   -0.69240780    0.38953420 
H                  -0.93795820   -0.68122760    0.48326780 
Cl                  0.02480690    0.02393280    2.64440800 
Cl                  0.01106940    0.02341950   -2.83369760 

