6 

C                  -0.13062530   -0.10991630    0.61003400 
H                  -0.08945510    0.92160250    0.38489330 
H                   0.67316940   -0.73599400    0.18701550 
H                  -1.18789610   -0.52218900    0.21019330 
Cl                  0.03707330    0.02665210    2.67072220 
Cl                  0.02461150    0.02129160   -2.90214060 

