6 

C                  -0.29911300    0.15265220   -0.45673060 
H                  -0.44589370    1.20346540   -0.12957110 
H                   0.51612270   -0.28773680    0.15304170 
H                  -1.05387560   -0.62746910   -0.40880010 
Cl                  0.06248800   -0.02999400    2.68386920 
Cl                  0.06817560   -0.03051580   -2.51626840 

