6 

C                  -0.22222290    0.10172430   -0.45445180 
H                  -0.43418080    1.12178180   -0.28078620 
H                   0.83092130   -0.25051490   -0.20396830 
H                  -1.24060880   -0.41514200   -0.21075810 
Cl                  0.04636770   -0.02565920    2.59817390 
Cl                  0.05391780   -0.02223880   -2.42233230 

