6 

C                   0.13592260   -0.01847640   -0.12383700 
H                  -0.04838860    1.12203890    0.00168050 
H                   1.06254070   -0.45638930    0.06727700 
H                  -0.93274940   -0.42885560    0.16666860 
Cl                 -0.02417860   -0.00136200    2.34066360 
Cl                 -0.02487730    0.00090760   -2.30494590 

