6 

C                  -0.13269940    0.09275820   -0.47737970 
H                  -0.15584510    1.11024330   -0.33730030 
H                   0.76292700   -0.35673070    0.11042610 
H                  -1.00918090   -0.66641220   -0.06541670 
Cl                  0.02840770   -0.02020670    2.51081100 
Cl                  0.02846400   -0.01401050   -2.33865100 

