6 

C                  -0.53267020    0.13871580   -0.78271090 
H                  -1.07962470    1.23394580   -0.62723830 
H                   0.18243890    0.04657860    0.06605510 
H                  -1.41753700   -0.58591060   -0.80392310 
Cl                  0.13004750   -0.04385840    3.06011170 
Cl                  0.11902580   -0.02348640   -2.75286790 

