6 

C                  -0.16933080   -0.07794350    0.68724230 
H                   0.10559430    0.98925530    0.37323340 
H                   0.72161730   -0.73861500    0.26835700 
H                  -1.07382850   -0.60437470    0.72235620 
Cl                  0.03483900    0.01783520    2.64979450 
Cl                  0.02979750    0.01971400   -2.92444940 

