6 

C                  -0.27155900   -0.01569510    0.67324460 
H                  -0.17224220    0.93468150    0.14688360 
H                   0.36344650   -0.69104060    0.25685900 
H                  -1.28737850   -0.44269340    0.65477390 
Cl                  0.07070950    0.00155200    2.72761060 
Cl                  0.05334970    0.01065070   -2.98843190 

