6 

C                   0.15559730   -0.00091950   -0.05581670 
H                   0.21616230    1.02752670    0.03802720 
H                   1.06691290   -0.57547720   -0.03334610 
H                  -0.76116700   -0.72215750   -0.29367130 
Cl                 -0.03286460    0.00504060    2.34017470 
Cl                 -0.03559570    0.00306670   -2.31268560 

