6 

C                  -0.34615020    0.11836740   -0.46987640 
H                  -0.62373110    1.20394970   -0.60387820 
H                   0.61546210   -0.15678320   -0.02931010 
H                  -1.29754780   -0.39404330   -0.46477660 
Cl                  0.07554240   -0.03328200    2.75793820 
Cl                  0.08051260   -0.02595780   -2.56536240 

