6 

C                  -0.07138150   -0.08386470    0.46909950 
H                   0.07345340    0.81323080    0.10881570 
H                   0.68158580   -0.71592960    0.35123820 
H                  -0.99562330   -0.70700190    0.50621120 
Cl                  0.02170670    0.02313220    2.63463950 
Cl                  0.00924960    0.02355190   -2.82310640 

