6 

C                   0.13884040   -0.10765930    0.34823770 
H                   0.21505830    1.07252910    0.19346210 
H                   1.10612580   -0.75154310    0.21392810 
H                  -0.75574970   -0.61169430    0.19628010 
Cl                 -0.03100570    0.02295700    2.39543240 
Cl                 -0.03304310    0.02241710   -2.53224400 

