6 

C                  -0.25340910    0.12104350   -0.45421920 
H                  -0.46359120    1.16689740   -0.11861650 
H                   0.58628850   -0.26194640   -0.07795370 
H                  -1.02105550   -0.45780920   -0.28374820 
Cl                  0.05246430   -0.02731320    2.62968000 
Cl                  0.06008250   -0.02694390   -2.46014920 

