6 

C                   0.13798100   -0.02159560   -0.10287760 
H                  -0.00711590    1.09968070    0.02116620 
H                   1.05643440   -0.48647200    0.04675990 
H                  -0.78394000   -0.42560580    0.01924800 
Cl                 -0.02670700    0.00052460    2.33945890 
Cl                 -0.02834360    0.00150220   -2.30665620 

