6 

C                  -0.24510170   -0.02118560    0.68091210 
H                  -0.27026350    0.90514370    0.22797910 
H                   0.39124030   -0.70135170    0.28950510 
H                  -1.42076940   -0.40243600    0.64754500 
Cl                  0.06857910    0.00281530    2.72063350 
Cl                  0.05227760    0.01122850   -2.98717170 

