6 

C                  -0.40843960    0.13922150   -0.61436520 
H                  -0.50496150    1.26998230   -0.49544940 
H                   0.52182620   -0.19984080   -0.04746110 
H                  -1.20129210   -0.60845710   -0.17859450 
Cl                  0.08586670   -0.03549610    2.81838750 
Cl                  0.08803690   -0.02536080   -2.58714130 

