6 

C                  -0.19724300    0.08604520   -0.45396310 
H                  -0.34195470    1.12902370   -0.41253500 
H                   0.82002440   -0.22632120   -0.22855660 
H                  -1.24379820   -0.44382470   -0.18091120 
Cl                  0.04161100   -0.02427920    2.57433220 
Cl                  0.04786040   -0.01832940   -2.39499230 

