6 

C                  -0.18773880    0.07076750   -0.45365430 
H                  -0.27236620    1.17331730   -0.46418800 
H                   0.73610540   -0.21959750   -0.19308300 
H                  -1.07029920   -0.42587820   -0.18896350 
Cl                  0.03837480   -0.02328560    2.55838400 
Cl                  0.04325440   -0.01607440   -2.37843920 

