6 

C                   0.13677110   -0.01758050   -0.09267440 
H                   0.03162780    1.05373360    0.02411960 
H                   1.06490400   -0.50981450    0.03402870 
H                  -0.71691130   -0.44563870   -0.05679700 
Cl                 -0.02794300    0.00146550    2.33928980 
Cl                 -0.02997880    0.00175420   -2.30751550 

