6 

C                  -0.16541750   -0.09231870    0.66189430 
H                   0.10307330    0.95742870    0.39228360 
H                   0.64856310   -0.68808820    0.24063060 
H                  -1.01224050   -0.57616810    0.58160420 
Cl                  0.03538140    0.02090640    2.65683470 
Cl                  0.02832250    0.02020290   -2.91849260 

