6 

C                   0.21617970   -0.08060110    0.07842950 
H                   0.24955650    1.08434620   -0.10240990 
H                   1.10322210   -0.64534410    0.08063990 
H                  -0.78520090   -0.71019630    0.18961480 
Cl                 -0.04632470    0.01690010    2.36789800 
Cl                 -0.04423170    0.01857670   -2.39964730 

