6 

C                  -0.14526570   -0.05854470    0.76460710 
H                  -0.18754710    0.89064950    0.29886330 
H                   0.56047040   -0.69220800    0.51276400 
H                  -1.13701270   -0.45457980    0.79063450 
Cl                  0.03701190    0.00991670    2.63260450 
Cl                  0.03426380    0.01822570   -2.94064800 

