6 

C                  -0.03565940    0.08655200   -0.40325250 
H                  -0.25531060    0.98495740    0.01010170 
H                   0.92809270   -0.39781050   -0.00733700 
H                  -1.07072970   -0.45112910   -0.26821860 
Cl                  0.01317610   -0.01564330    2.44543210 
Cl                  0.01031990   -0.01787980   -2.29943070 

