6 

C                  -0.25586150   -0.01851900    0.67632130 
H                  -0.22339000    0.91469560    0.18494730 
H                   0.36378630   -0.68353200    0.27832870 
H                  -1.36808000   -0.42757340    0.65030870 
Cl                  0.06964750    0.00214060    2.72437310 
Cl                  0.05281870    0.01093930   -2.98784530 

