6 

C                  -0.35501250    0.11446350   -0.47905290 
H                  -0.61780480    1.21003380   -0.62614020 
H                   0.55870840   -0.14908850   -0.05981590 
H                  -1.22690970   -0.36992450   -0.42660890 
Cl                  0.07676690   -0.03354890    2.76497360 
Cl                  0.08175490   -0.02544180   -2.56883450 

