6 

C                  -0.13169370   -0.11664840    0.60022530 
H                  -0.12716910    0.96741810    0.36629260 
H                   0.72316500   -0.77443020    0.17683550 
H                  -1.16756950   -0.48061910    0.17605270 
Cl                  0.03726070    0.02734840    2.67236690 
Cl                  0.02385390    0.02148260   -2.89861070 

