6 

C                  -0.24056860   -0.03848660    0.70220290 
H                  -0.35068720    0.98335150    0.35026780 
H                   0.52765960   -0.79571700    0.30180100 
H                  -1.35869150   -0.29889150    0.65167610 
Cl                  0.06531930    0.00531340    2.70680010 
Cl                  0.05059390    0.01210260   -2.98466450 

