6 

C                  -0.41224950    0.13459710   -0.62699470 
H                  -0.51370260    1.28432090   -0.46556100 
H                   0.48261750   -0.18118540   -0.07905060 
H                  -1.14770650   -0.56407510   -0.21749700 
Cl                  0.08693520   -0.03573770    2.82475280 
Cl                  0.08811070   -0.02575970   -2.58800780 

