6 

C                  -0.39080240    0.16131480   -0.81574540 
H                  -0.71325270    1.10315300   -0.72934440 
H                   0.42573150   -0.19181750   -0.12039590 
H                  -1.22759710   -0.66074820   -0.87085790 
Cl                  0.10249580   -0.03899580    2.91786180 
Cl                  0.07483290   -0.02332450   -2.58882340 

