6 

C                   0.13874480   -0.01017880   -0.08281690 
H                   0.07769130    1.00129630    0.02469290 
H                   1.07376640   -0.53361120    0.01913640 
H                  -0.69829290   -0.49856620   -0.12821930 
Cl                 -0.02917480    0.00239190    2.33932740 
Cl                 -0.03153770    0.00200650   -2.30846470 

