6 

C                  -0.26400490    0.14964630   -0.45844390 
H                  -0.43736970    1.12993000   -0.09332310 
H                   0.56616920   -0.30633980    0.03962790 
H                  -1.08832890   -0.62753980   -0.29704590 
Cl                  0.05539260   -0.02810220    2.64525630 
Cl                  0.06254640   -0.02872750   -2.47802540 

