6 

C                   0.01177070   -0.11386120    0.60203110 
H                   0.12832840    1.06332790    0.30189460 
H                   1.01498470   -0.73948730    0.47045340 
H                  -0.83363590   -0.58343510    0.21290510 
Cl                  0.00040830    0.02271080    2.43720630 
Cl                 -0.01363110    0.02400120   -2.67198450 

