6 

C                   0.21925440   -0.06666790    0.01200660 
H                   0.14685630    1.08475700    0.00681000 
H                   1.14797700   -0.54317600   -0.02708540 
H                  -0.87617370   -0.55901080    0.13536920 
Cl                 -0.04456880    0.01137720    2.34606720 
Cl                 -0.04273920    0.01200310   -2.35350460 

