6 

C                  -0.23872010   -0.05166440    0.79087340 
H                   0.06210840    0.93859010    0.62427150 
H                   0.60633010   -0.65185170    0.31601820 
H                  -1.31276170   -0.56599720    0.62879200 
Cl                  0.05482810    0.01209200    2.65726840 
Cl                  0.04500240    0.01455260   -2.97327430 

