4
frag_0
O                   1.79938000    1.69685200    1.60455800 
C                   0.58426400    1.65752300    1.27194500 
H                  -0.16208488    2.30556077    1.68203681 
H                   0.15457830    0.95276279    0.61779383 
4
frag_1
O                  -1.20933700   -1.22104000   -1.29004100 
C                  -0.10260100   -1.46487600   -0.75698300 
H                   0.36381793   -2.42223347   -0.96155494 
H                   0.37346987   -0.78973286   -0.11488381 
6
frag_2
N                  -0.36527600    2.48198700    1.79368300 
C                  -1.60564200    1.83533300    1.96437100 
H                  -0.09051133    3.29128225    2.36142215 
H                   0.29958146    1.90470638    1.42836779 
H                  -1.61470600    0.93697300    2.57811200 
H                  -2.47886785    2.24245300    1.61023801 
7
frag_3
N                  -0.36527600    2.48198700    1.79368300 
C                   0.02713900    3.63781100    2.60452000 
H                  -1.23376663    2.02920698    1.91319686 
H                   0.29958146    1.90470638    1.42836779 
H                   0.68834500    3.28730200    3.41372800 
H                  -0.90065200    4.00591800    3.05955300 
H                   0.51601251    4.43950533    2.05120398 
6
frag_4
N                  -0.36527600    2.48198700    1.79368300 
C                   0.58426400    1.65752300    1.27194500 
H                  -1.23376663    2.02920698    1.91319686 
H                  -0.09051133    3.29128225    2.36142215 
O                   1.79938000    1.69685200    1.60455800 
H                   0.15457830    0.95276279    0.61779383 
9
frag_5
C                  -1.60564200    1.83533300    1.96437100 
N                  -0.36527600    2.48198700    1.79368300 
C                   0.02713900    3.63781100    2.60452000 
H                  -1.61470600    0.93697300    2.57811200 
H                  -2.47886785    2.24245300    1.61023801 
H                   0.29958146    1.90470638    1.42836779 
H                   0.68834500    3.28730200    3.41372800 
H                  -0.90065200    4.00591800    3.05955300 
H                   0.51601251    4.43950533    2.05120398 
8
frag_6
C                  -1.60564200    1.83533300    1.96437100 
N                  -0.36527600    2.48198700    1.79368300 
C                   0.58426400    1.65752300    1.27194500 
H                  -1.61470600    0.93697300    2.57811200 
H                  -2.47886785    2.24245300    1.61023801 
H                  -0.09051133    3.29128225    2.36142215 
O                   1.79938000    1.69685200    1.60455800 
H                   0.15457830    0.95276279    0.61779383 
9
frag_7
C                   0.02713900    3.63781100    2.60452000 
N                  -0.36527600    2.48198700    1.79368300 
C                   0.58426400    1.65752300    1.27194500 
H                   0.68834500    3.28730200    3.41372800 
H                  -0.90065200    4.00591800    3.05955300 
H                   0.51601251    4.43950533    2.05120398 
H                  -1.23376663    2.02920698    1.91319686 
O                   1.79938000    1.69685200    1.60455800 
H                   0.15457830    0.95276279    0.61779383 
7
frag_8
N                   0.49079900   -2.68287100   -1.01724900 
C                  -0.13613200   -3.54444700   -2.01541100 
H                   1.40141370   -2.97965731   -0.67205162 
H                   0.07530685   -1.83004430   -0.83501361 
H                   0.66689700   -4.12509300   -2.49405500 
H                  -0.58960600   -2.90477300   -2.78094100 
H                  -0.88755100   -4.21440132   -1.59389435 
7
frag_9
N                   0.49079900   -2.68287100   -1.01724900 
C                   1.79132600   -3.10673700   -0.52424300 
H                   0.05182881   -3.28613704   -1.71615105 
H                   0.07530685   -1.83004430   -0.83501361 
H                   2.59387742   -2.94161426   -1.24635693 
H                   1.73059200   -4.17871500   -0.27593900 
H                   1.99688300   -2.60411000    0.42837100 
6
frag_10
N                   0.49079900   -2.68287100   -1.01724900 
C                  -0.10260100   -1.46487600   -0.75698300 
H                   0.05182881   -3.28613704   -1.71615105 
H                   1.40141370   -2.97965731   -0.67205162 
O                  -1.20933700   -1.22104000   -1.29004100 
H                   0.37346987   -0.78973286   -0.11488381 
10
frag_11
C                  -0.13613200   -3.54444700   -2.01541100 
N                   0.49079900   -2.68287100   -1.01724900 
C                   1.79132600   -3.10673700   -0.52424300 
H                   0.66689700   -4.12509300   -2.49405500 
H                  -0.58960600   -2.90477300   -2.78094100 
H                  -0.88755100   -4.21440132   -1.59389435 
H                   0.07530685   -1.83004430   -0.83501361 
H                   2.59387742   -2.94161426   -1.24635693 
H                   1.73059200   -4.17871500   -0.27593900 
H                   1.99688300   -2.60411000    0.42837100 
9
frag_12
C                  -0.13613200   -3.54444700   -2.01541100 
N                   0.49079900   -2.68287100   -1.01724900 
C                  -0.10260100   -1.46487600   -0.75698300 
H                   0.66689700   -4.12509300   -2.49405500 
H                  -0.58960600   -2.90477300   -2.78094100 
H                  -0.88755100   -4.21440132   -1.59389435 
H                   1.40141370   -2.97965731   -0.67205162 
O                  -1.20933700   -1.22104000   -1.29004100 
H                   0.37346987   -0.78973286   -0.11488381 
9
frag_13
C                   1.79132600   -3.10673700   -0.52424300 
N                   0.49079900   -2.68287100   -1.01724900 
C                  -0.10260100   -1.46487600   -0.75698300 
H                   2.59387742   -2.94161426   -1.24635693 
H                   1.73059200   -4.17871500   -0.27593900 
H                   1.99688300   -2.60411000    0.42837100 
H                   0.05182881   -3.28613704   -1.71615105 
O                  -1.20933700   -1.22104000   -1.29004100 
H                   0.37346987   -0.78973286   -0.11488381 
5
frag_14
C                  -0.13613200   -3.54444700   -2.01541100 
H                   0.66689700   -4.12509300   -2.49405500 
H                   0.35664266   -2.86723879   -1.23084469 
H                  -0.58960600   -2.90477300   -2.78094100 
H                  -0.88755100   -4.21440132   -1.59389435 
5
frag_15
C                  -0.13613200   -3.54444700   -2.01541100 
H                  -0.58960600   -2.90477300   -2.78094100 
H                   0.35664266   -2.86723879   -1.23084469 
H                   0.66689700   -4.12509300   -2.49405500 
H                  -0.88755100   -4.21440132   -1.59389435 
15
frag_16
C                  -0.13613200   -3.54444700   -2.01541100 
C                  -1.17416700   -4.46994400   -1.43311400 
C                  -2.52045300   -4.09770400   -1.40091700 
C                  -0.80665300   -5.70985300   -0.90409100 
H                  -2.80349700   -3.12124400   -1.79367100 
C                  -3.47650700   -4.94556800   -0.85125200 
C                  -1.75909400   -6.55722400   -0.34548400 
H                   0.23964200   -6.02043500   -0.94737300 
H                  -4.52081500   -4.63607700   -0.82080600 
C                  -3.09804800   -6.17584600   -0.31995800 
H                  -1.45586600   -7.52050000    0.06334100 
H                  -3.84647000   -6.83552800    0.11677900 
H                   0.35664266   -2.86723879   -1.23084469 
H                   0.66689700   -4.12509300   -2.49405500 
H                  -0.58960600   -2.90477300   -2.78094100 
7
frag_17
N                   0.49079900   -2.68287100   -1.01724900 
C                  -0.13613200   -3.54444700   -2.01541100 
H                   0.66689700   -4.12509300   -2.49405500 
H                   1.40141370   -2.97965731   -0.67205162 
H                   0.07530685   -1.83004430   -0.83501361 
H                  -0.58960600   -2.90477300   -2.78094100 
H                  -0.88755100   -4.21440132   -1.59389435 
7
frag_18
N                   0.49079900   -2.68287100   -1.01724900 
C                  -0.13613200   -3.54444700   -2.01541100 
H                  -0.58960600   -2.90477300   -2.78094100 
H                   1.40141370   -2.97965731   -0.67205162 
H                   0.07530685   -1.83004430   -0.83501361 
H                   0.66689700   -4.12509300   -2.49405500 
H                  -0.88755100   -4.21440132   -1.59389435 
17
frag_19
N                   0.49079900   -2.68287100   -1.01724900 
C                  -0.13613200   -3.54444700   -2.01541100 
C                  -1.17416700   -4.46994400   -1.43311400 
C                  -2.52045300   -4.09770400   -1.40091700 
C                  -0.80665300   -5.70985300   -0.90409100 
H                  -2.80349700   -3.12124400   -1.79367100 
C                  -3.47650700   -4.94556800   -0.85125200 
C                  -1.75909400   -6.55722400   -0.34548400 
H                   0.23964200   -6.02043500   -0.94737300 
H                  -4.52081500   -4.63607700   -0.82080600 
C                  -3.09804800   -6.17584600   -0.31995800 
H                  -1.45586600   -7.52050000    0.06334100 
H                  -3.84647000   -6.83552800    0.11677900 
H                   1.40141370   -2.97965731   -0.67205162 
H                   0.07530685   -1.83004430   -0.83501361 
H                   0.66689700   -4.12509300   -2.49405500 
H                  -0.58960600   -2.90477300   -2.78094100 
5
frag_20
H                   0.66689700   -4.12509300   -2.49405500 
C                  -0.13613200   -3.54444700   -2.01541100 
H                  -0.58960600   -2.90477300   -2.78094100 
H                   0.35664266   -2.86723879   -1.23084469 
H                  -0.88755100   -4.21440132   -1.59389435 
15
frag_21
H                   0.66689700   -4.12509300   -2.49405500 
C                  -0.13613200   -3.54444700   -2.01541100 
C                  -1.17416700   -4.46994400   -1.43311400 
C                  -2.52045300   -4.09770400   -1.40091700 
C                  -0.80665300   -5.70985300   -0.90409100 
H                  -2.80349700   -3.12124400   -1.79367100 
C                  -3.47650700   -4.94556800   -0.85125200 
C                  -1.75909400   -6.55722400   -0.34548400 
H                   0.23964200   -6.02043500   -0.94737300 
H                  -4.52081500   -4.63607700   -0.82080600 
C                  -3.09804800   -6.17584600   -0.31995800 
H                  -1.45586600   -7.52050000    0.06334100 
H                  -3.84647000   -6.83552800    0.11677900 
H                   0.35664266   -2.86723879   -1.23084469 
H                  -0.58960600   -2.90477300   -2.78094100 
15
frag_22
H                  -0.58960600   -2.90477300   -2.78094100 
C                  -0.13613200   -3.54444700   -2.01541100 
C                  -1.17416700   -4.46994400   -1.43311400 
C                  -2.52045300   -4.09770400   -1.40091700 
C                  -0.80665300   -5.70985300   -0.90409100 
H                  -2.80349700   -3.12124400   -1.79367100 
C                  -3.47650700   -4.94556800   -0.85125200 
C                  -1.75909400   -6.55722400   -0.34548400 
H                   0.23964200   -6.02043500   -0.94737300 
H                  -4.52081500   -4.63607700   -0.82080600 
C                  -3.09804800   -6.17584600   -0.31995800 
H                  -1.45586600   -7.52050000    0.06334100 
H                  -3.84647000   -6.83552800    0.11677900 
H                   0.35664266   -2.86723879   -1.23084469 
H                   0.66689700   -4.12509300   -2.49405500 
15
frag_23
C                   2.89999700   -2.87863100   -1.52179500 
C                   1.79132600   -3.10673700   -0.52424300 
C                   3.70755100   -3.93407200   -1.94195600 
C                   3.10759500   -1.60792000   -2.06393500 
H                   3.54557100   -4.92875400   -1.52121400 
C                   4.70690700   -3.73092500   -2.89025300 
C                   4.10468200   -1.40174600   -3.00971500 
H                   2.48638000   -0.77484800   -1.72338200 
H                   5.32682600   -4.56714100   -3.21258200 
C                   4.90351700   -2.46431300   -3.42843600 
H                   4.28702500   -0.39790400   -3.39619200 
H                   5.68452400   -2.29913800   -4.16995300 
H                   0.76909747   -2.77357366   -0.91175114 
H                   1.73059200   -4.17871500   -0.27593900 
H                   1.99688300   -2.60411000    0.42837100 
4
frag_24
C                  -1.60564200    1.83533300    1.96437100 
H                  -1.61470600    0.93697300    2.57811200 
H                  -0.63070068    2.34361016    1.83020835 
H                  -2.47886785    2.24245300    1.61023801 
14
frag_25
C                  -1.60564200    1.83533300    1.96437100 
C                  -2.81194500    2.39774200    1.47516000 
C                  -4.07369500    1.92121000    1.91016700 
C                  -2.81819800    3.41564000    0.48971500 
H                  -4.10287900    1.12304600    2.65623600 
C                  -5.25201800    2.44658400    1.41106100 
C                  -4.00564100    3.92237700   -0.01741500 
H                  -1.85933900    3.76539600    0.10432300 
H                  -6.20354200    2.05351600    1.77112800 
C                  -5.23623500    3.45306900    0.44103100 
H                  -3.97178500    4.67332800   -0.80818900 
H                  -6.16658900    3.84133700    0.02900400 
H                  -0.63070068    2.34361016    1.83020835 
H                  -1.61470600    0.93697300    2.57811200 
6
frag_26
N                  -0.36527600    2.48198700    1.79368300 
C                  -1.60564200    1.83533300    1.96437100 
H                  -1.61470600    0.93697300    2.57811200 
H                  -0.09051133    3.29128225    2.36142215 
H                   0.29958146    1.90470638    1.42836779 
H                  -2.47886785    2.24245300    1.61023801 
16
frag_27
N                  -0.36527600    2.48198700    1.79368300 
C                  -1.60564200    1.83533300    1.96437100 
C                  -2.81194500    2.39774200    1.47516000 
C                  -4.07369500    1.92121000    1.91016700 
C                  -2.81819800    3.41564000    0.48971500 
H                  -4.10287900    1.12304600    2.65623600 
C                  -5.25201800    2.44658400    1.41106100 
C                  -4.00564100    3.92237700   -0.01741500 
H                  -1.85933900    3.76539600    0.10432300 
H                  -6.20354200    2.05351600    1.77112800 
C                  -5.23623500    3.45306900    0.44103100 
H                  -3.97178500    4.67332800   -0.80818900 
H                  -6.16658900    3.84133700    0.02900400 
H                  -0.09051133    3.29128225    2.36142215 
H                   0.29958146    1.90470638    1.42836779 
H                  -1.61470600    0.93697300    2.57811200 
14
frag_28
H                  -1.61470600    0.93697300    2.57811200 
C                  -1.60564200    1.83533300    1.96437100 
C                  -2.81194500    2.39774200    1.47516000 
C                  -4.07369500    1.92121000    1.91016700 
C                  -2.81819800    3.41564000    0.48971500 
H                  -4.10287900    1.12304600    2.65623600 
C                  -5.25201800    2.44658400    1.41106100 
C                  -4.00564100    3.92237700   -0.01741500 
H                  -1.85933900    3.76539600    0.10432300 
H                  -6.20354200    2.05351600    1.77112800 
C                  -5.23623500    3.45306900    0.44103100 
H                  -3.97178500    4.67332800   -0.80818900 
H                  -6.16658900    3.84133700    0.02900400 
H                  -0.63070068    2.34361016    1.83020835 
5
frag_29
C                   0.02713900    3.63781100    2.60452000 
H                   0.68834500    3.28730200    3.41372800 
H                  -0.28130351    2.72932062    1.96719320 
H                  -0.90065200    4.00591800    3.05955300 
H                   0.51601251    4.43950533    2.05120398 
5
frag_30
C                   0.02713900    3.63781100    2.60452000 
H                  -0.90065200    4.00591800    3.05955300 
H                  -0.28130351    2.72932062    1.96719320 
H                   0.68834500    3.28730200    3.41372800 
H                   0.51601251    4.43950533    2.05120398 
15
frag_31
C                   0.02713900    3.63781100    2.60452000 
C                   0.70248500    4.74529800    1.84015100 
C                  -0.06377900    5.73396200    1.21722800 
C                   2.09385600    4.82210400    1.76012100 
H                  -1.15247800    5.67402200    1.27519200 
C                   0.54563700    6.77748500    0.52761400 
C                   2.70653600    5.87147300    1.08089900 
H                   2.68861800    4.03265900    2.21906700 
H                  -0.06591800    7.53924200    0.04547700 
C                   1.93471400    6.85033100    0.46038800 
H                   3.79407700    5.91665900    1.02599500 
H                   2.41528500    7.66814100   -0.07537600 
H                  -0.28130351    2.72932062    1.96719320 
H                   0.68834500    3.28730200    3.41372800 
H                  -0.90065200    4.00591800    3.05955300 
7
frag_32
N                  -0.36527600    2.48198700    1.79368300 
C                   0.02713900    3.63781100    2.60452000 
H                   0.68834500    3.28730200    3.41372800 
H                  -1.23376663    2.02920698    1.91319686 
H                   0.29958146    1.90470638    1.42836779 
H                  -0.90065200    4.00591800    3.05955300 
H                   0.51601251    4.43950533    2.05120398 
7
frag_33
N                  -0.36527600    2.48198700    1.79368300 
C                   0.02713900    3.63781100    2.60452000 
H                  -0.90065200    4.00591800    3.05955300 
H                  -1.23376663    2.02920698    1.91319686 
H                   0.29958146    1.90470638    1.42836779 
H                   0.68834500    3.28730200    3.41372800 
H                   0.51601251    4.43950533    2.05120398 
17
frag_34
N                  -0.36527600    2.48198700    1.79368300 
C                   0.02713900    3.63781100    2.60452000 
C                   0.70248500    4.74529800    1.84015100 
C                  -0.06377900    5.73396200    1.21722800 
C                   2.09385600    4.82210400    1.76012100 
H                  -1.15247800    5.67402200    1.27519200 
C                   0.54563700    6.77748500    0.52761400 
C                   2.70653600    5.87147300    1.08089900 
H                   2.68861800    4.03265900    2.21906700 
H                  -0.06591800    7.53924200    0.04547700 
C                   1.93471400    6.85033100    0.46038800 
H                   3.79407700    5.91665900    1.02599500 
H                   2.41528500    7.66814100   -0.07537600 
H                  -1.23376663    2.02920698    1.91319686 
H                   0.29958146    1.90470638    1.42836779 
H                   0.68834500    3.28730200    3.41372800 
H                  -0.90065200    4.00591800    3.05955300 
5
frag_35
H                   0.68834500    3.28730200    3.41372800 
C                   0.02713900    3.63781100    2.60452000 
H                  -0.90065200    4.00591800    3.05955300 
H                  -0.28130351    2.72932062    1.96719320 
H                   0.51601251    4.43950533    2.05120398 
15
frag_36
H                   0.68834500    3.28730200    3.41372800 
C                   0.02713900    3.63781100    2.60452000 
C                   0.70248500    4.74529800    1.84015100 
C                  -0.06377900    5.73396200    1.21722800 
C                   2.09385600    4.82210400    1.76012100 
H                  -1.15247800    5.67402200    1.27519200 
C                   0.54563700    6.77748500    0.52761400 
C                   2.70653600    5.87147300    1.08089900 
H                   2.68861800    4.03265900    2.21906700 
H                  -0.06591800    7.53924200    0.04547700 
C                   1.93471400    6.85033100    0.46038800 
H                   3.79407700    5.91665900    1.02599500 
H                   2.41528500    7.66814100   -0.07537600 
H                  -0.28130351    2.72932062    1.96719320 
H                  -0.90065200    4.00591800    3.05955300 
15
frag_37
H                  -0.90065200    4.00591800    3.05955300 
C                   0.02713900    3.63781100    2.60452000 
C                   0.70248500    4.74529800    1.84015100 
C                  -0.06377900    5.73396200    1.21722800 
C                   2.09385600    4.82210400    1.76012100 
H                  -1.15247800    5.67402200    1.27519200 
C                   0.54563700    6.77748500    0.52761400 
C                   2.70653600    5.87147300    1.08089900 
H                   2.68861800    4.03265900    2.21906700 
H                  -0.06591800    7.53924200    0.04547700 
C                   1.93471400    6.85033100    0.46038800 
H                   3.79407700    5.91665900    1.02599500 
H                   2.41528500    7.66814100   -0.07537600 
H                  -0.28130351    2.72932062    1.96719320 
H                   0.68834500    3.28730200    3.41372800 
5
frag_38
C                   1.79132600   -3.10673700   -0.52424300 
H                   1.73059200   -4.17871500   -0.27593900 
H                   0.76909747   -2.77357366   -0.91175114 
H                   2.59387742   -2.94161426   -1.24635693 
H                   1.99688300   -2.60411000    0.42837100 
5
frag_39
C                   1.79132600   -3.10673700   -0.52424300 
H                   1.99688300   -2.60411000    0.42837100 
H                   0.76909747   -2.77357366   -0.91175114 
H                   2.59387742   -2.94161426   -1.24635693 
H                   1.73059200   -4.17871500   -0.27593900 
17
frag_40
N                   0.49079900   -2.68287100   -1.01724900 
C                   1.79132600   -3.10673700   -0.52424300 
C                   2.89999700   -2.87863100   -1.52179500 
C                   3.70755100   -3.93407200   -1.94195600 
C                   3.10759500   -1.60792000   -2.06393500 
H                   3.54557100   -4.92875400   -1.52121400 
C                   4.70690700   -3.73092500   -2.89025300 
C                   4.10468200   -1.40174600   -3.00971500 
H                   2.48638000   -0.77484800   -1.72338200 
H                   5.32682600   -4.56714100   -3.21258200 
C                   4.90351700   -2.46431300   -3.42843600 
H                   4.28702500   -0.39790400   -3.39619200 
H                   5.68452400   -2.29913800   -4.16995300 
H                   0.05182881   -3.28613704   -1.71615105 
H                   0.07530685   -1.83004430   -0.83501361 
H                   1.73059200   -4.17871500   -0.27593900 
H                   1.99688300   -2.60411000    0.42837100 
7
frag_41
N                   0.49079900   -2.68287100   -1.01724900 
C                   1.79132600   -3.10673700   -0.52424300 
H                   1.73059200   -4.17871500   -0.27593900 
H                   0.05182881   -3.28613704   -1.71615105 
H                   0.07530685   -1.83004430   -0.83501361 
H                   2.59387742   -2.94161426   -1.24635693 
H                   1.99688300   -2.60411000    0.42837100 
7
frag_42
N                   0.49079900   -2.68287100   -1.01724900 
C                   1.79132600   -3.10673700   -0.52424300 
H                   1.99688300   -2.60411000    0.42837100 
H                   0.05182881   -3.28613704   -1.71615105 
H                   0.07530685   -1.83004430   -0.83501361 
H                   2.59387742   -2.94161426   -1.24635693 
H                   1.73059200   -4.17871500   -0.27593900 
15
frag_43
C                   2.89999700   -2.87863100   -1.52179500 
C                   1.79132600   -3.10673700   -0.52424300 
H                   1.73059200   -4.17871500   -0.27593900 
C                   3.70755100   -3.93407200   -1.94195600 
C                   3.10759500   -1.60792000   -2.06393500 
H                   3.54557100   -4.92875400   -1.52121400 
C                   4.70690700   -3.73092500   -2.89025300 
C                   4.10468200   -1.40174600   -3.00971500 
H                   2.48638000   -0.77484800   -1.72338200 
H                   5.32682600   -4.56714100   -3.21258200 
C                   4.90351700   -2.46431300   -3.42843600 
H                   4.28702500   -0.39790400   -3.39619200 
H                   5.68452400   -2.29913800   -4.16995300 
H                   0.76909747   -2.77357366   -0.91175114 
H                   1.99688300   -2.60411000    0.42837100 
15
frag_44
C                   2.89999700   -2.87863100   -1.52179500 
C                   1.79132600   -3.10673700   -0.52424300 
H                   1.99688300   -2.60411000    0.42837100 
C                   3.70755100   -3.93407200   -1.94195600 
C                   3.10759500   -1.60792000   -2.06393500 
H                   3.54557100   -4.92875400   -1.52121400 
C                   4.70690700   -3.73092500   -2.89025300 
C                   4.10468200   -1.40174600   -3.00971500 
H                   2.48638000   -0.77484800   -1.72338200 
H                   5.32682600   -4.56714100   -3.21258200 
C                   4.90351700   -2.46431300   -3.42843600 
H                   4.28702500   -0.39790400   -3.39619200 
H                   5.68452400   -2.29913800   -4.16995300 
H                   0.76909747   -2.77357366   -0.91175114 
H                   1.73059200   -4.17871500   -0.27593900 
5
frag_45
H                   1.73059200   -4.17871500   -0.27593900 
C                   1.79132600   -3.10673700   -0.52424300 
H                   1.99688300   -2.60411000    0.42837100 
H                   0.76909747   -2.77357366   -0.91175114 
H                   2.59387742   -2.94161426   -1.24635693 
4
frag_46
C                   0.55505900   -0.53221100    0.13003400 
H                   1.44886000   -0.80519700    0.68918100 
H                   0.07898813   -1.20735414   -0.51206519 
O                   0.05749521    0.53997071    0.34007460 
6
frag_47
C                   0.55505900   -0.53221100    0.13003400 
C                  -0.10260100   -1.46487600   -0.75698300 
H                   1.44886000   -0.80519700    0.68918100 
C                  -0.00931800    0.68394400    0.36827900 
C                  -1.35795062   -1.18829746   -1.36162056 
H                   0.36381793   -2.42223347   -0.96155494 
6
frag_48
C                   0.55505900   -0.53221100    0.13003400 
C                  -0.00931800    0.68394400    0.36827900 
H                   1.44886000   -0.80519700    0.68918100 
H                   0.07898813   -1.20735414   -0.51206519 
H                  -0.89597100    0.98845000   -0.18719900 
H                   0.42036770    1.38870421    1.02243017 
6
frag_49
H                   1.44886000   -0.80519700    0.68918100 
C                   0.55505900   -0.53221100    0.13003400 
C                  -0.10260100   -1.46487600   -0.75698300 
O                   0.05749521    0.53997071    0.34007460 
O                  -1.20933700   -1.22104000   -1.29004100 
H                   0.36381793   -2.42223347   -0.96155494 
6
frag_50
H                   1.44886000   -0.80519700    0.68918100 
C                   0.55505900   -0.53221100    0.13003400 
C                  -0.00931800    0.68394400    0.36827900 
H                   0.07898813   -1.20735414   -0.51206519 
H                  -0.89597100    0.98845000   -0.18719900 
H                   0.42036770    1.38870421    1.02243017 
8
frag_51
C                  -0.10260100   -1.46487600   -0.75698300 
C                   0.55505900   -0.53221100    0.13003400 
C                  -0.00931800    0.68394400    0.36827900 
O                  -1.20933700   -1.22104000   -1.29004100 
H                   0.36381793   -2.42223347   -0.96155494 
H                   1.44886000   -0.80519700    0.68918100 
H                  -0.89597100    0.98845000   -0.18719900 
H                   0.42036770    1.38870421    1.02243017 
6
frag_52
O                  -1.20933700   -1.22104000   -1.29004100 
C                  -0.10260100   -1.46487600   -0.75698300 
N                   0.49079900   -2.68287100   -1.01724900 
H                   0.37346987   -0.78973286   -0.11488381 
H                   0.05182881   -3.28613704   -1.71615105 
H                   1.40141370   -2.97965731   -0.67205162 
6
frag_53
O                  -1.20933700   -1.22104000   -1.29004100 
C                  -0.10260100   -1.46487600   -0.75698300 
C                   0.55505900   -0.53221100    0.13003400 
H                   0.36381793   -2.42223347   -0.96155494 
H                   1.44886000   -0.80519700    0.68918100 
O                   0.05749521    0.53997071    0.34007460 
8
frag_54
N                   0.49079900   -2.68287100   -1.01724900 
C                  -0.10260100   -1.46487600   -0.75698300 
C                   0.55505900   -0.53221100    0.13003400 
H                   0.05182881   -3.28613704   -1.71615105 
H                   1.40141370   -2.97965731   -0.67205162 
O                  -1.20933700   -1.22104000   -1.29004100 
H                   1.44886000   -0.80519700    0.68918100 
O                   0.05749521    0.53997071    0.34007460 
4
frag_55
C                  -0.00931800    0.68394400    0.36827900 
H                  -0.89597100    0.98845000   -0.18719900 
O                   0.48824579   -0.38823771    0.15823840 
H                   0.42036770    1.38870421    1.02243017 
6
frag_56
C                  -0.00931800    0.68394400    0.36827900 
C                   0.58426400    1.65752300    1.27194500 
C                   0.55505900   -0.53221100    0.13003400 
H                  -0.89597100    0.98845000   -0.18719900 
C                   1.96254699    1.70213314    1.64922161 
H                  -0.16208488    2.30556077    1.68203681 
6
frag_57
C                   0.55505900   -0.53221100    0.13003400 
C                  -0.00931800    0.68394400    0.36827900 
H                  -0.89597100    0.98845000   -0.18719900 
H                   1.44886000   -0.80519700    0.68918100 
H                   0.07898813   -1.20735414   -0.51206519 
H                   0.42036770    1.38870421    1.02243017 
8
frag_58
C                   0.55505900   -0.53221100    0.13003400 
C                  -0.00931800    0.68394400    0.36827900 
C                   0.58426400    1.65752300    1.27194500 
H                   1.44886000   -0.80519700    0.68918100 
H                   0.07898813   -1.20735414   -0.51206519 
H                  -0.89597100    0.98845000   -0.18719900 
O                   1.79938000    1.69685200    1.60455800 
H                  -0.16208488    2.30556077    1.68203681 
6
frag_59
H                  -0.89597100    0.98845000   -0.18719900 
C                  -0.00931800    0.68394400    0.36827900 
C                   0.58426400    1.65752300    1.27194500 
O                   0.48824579   -0.38823771    0.15823840 
O                   1.79938000    1.69685200    1.60455800 
H                  -0.16208488    2.30556077    1.68203681 
6
frag_60
O                   1.79938000    1.69685200    1.60455800 
C                   0.58426400    1.65752300    1.27194500 
N                  -0.36527600    2.48198700    1.79368300 
H                   0.15457830    0.95276279    0.61779383 
H                  -1.23376663    2.02920698    1.91319686 
H                  -0.09051133    3.29128225    2.36142215 
6
frag_61
O                   1.79938000    1.69685200    1.60455800 
C                   0.58426400    1.65752300    1.27194500 
C                  -0.00931800    0.68394400    0.36827900 
H                  -0.16208488    2.30556077    1.68203681 
O                   0.48824579   -0.38823771    0.15823840 
H                  -0.89597100    0.98845000   -0.18719900 
8
frag_62
N                  -0.36527600    2.48198700    1.79368300 
C                   0.58426400    1.65752300    1.27194500 
C                  -0.00931800    0.68394400    0.36827900 
H                  -1.23376663    2.02920698    1.91319686 
H                  -0.09051133    3.29128225    2.36142215 
O                   1.79938000    1.69685200    1.60455800 
O                   0.48824579   -0.38823771    0.15823840 
H                  -0.89597100    0.98845000   -0.18719900 
8
frag_63
O                   1.79938000    1.69685200    1.60455800 
C                   0.58426400    1.65752300    1.27194500 
C                  -0.00931800    0.68394400    0.36827900 
C                   0.55505900   -0.53221100    0.13003400 
H                  -0.16208488    2.30556077    1.68203681 
H                  -0.89597100    0.98845000   -0.18719900 
H                   1.44886000   -0.80519700    0.68918100 
H                   0.07898813   -1.20735414   -0.51206519 
8
frag_64
O                  -1.20933700   -1.22104000   -1.29004100 
C                  -0.10260100   -1.46487600   -0.75698300 
C                   0.55505900   -0.53221100    0.13003400 
C                  -0.00931800    0.68394400    0.36827900 
H                   0.36381793   -2.42223347   -0.96155494 
H                   1.44886000   -0.80519700    0.68918100 
H                  -0.89597100    0.98845000   -0.18719900 
H                   0.42036770    1.38870421    1.02243017 
12
frag_65
C                   0.70248500    4.74529800    1.84015100 
C                  -0.06377900    5.73396200    1.21722800 
H                  -1.15247800    5.67402200    1.27519200 
C                   0.54563700    6.77748500    0.52761400 
H                  -0.06591800    7.53924200    0.04547700 
C                   1.93471400    6.85033100    0.46038800 
H                   2.41528500    7.66814100   -0.07537600 
C                   2.70653600    5.87147300    1.08089900 
H                   3.79407700    5.91665900    1.02599500 
C                   2.09385600    4.82210400    1.76012100 
H                   2.68861800    4.03265900    2.21906700 
H                   0.21361149    3.94360367    2.39346702 
12
frag_66
C                  -2.81194500    2.39774200    1.47516000 
C                  -4.07369500    1.92121000    1.91016700 
H                  -4.10287900    1.12304600    2.65623600 
C                  -5.25201800    2.44658400    1.41106100 
H                  -6.20354200    2.05351600    1.77112800 
C                  -5.23623500    3.45306900    0.44103100 
H                  -6.16658900    3.84133700    0.02900400 
C                  -4.00564100    3.92237700   -0.01741500 
H                  -3.97178500    4.67332800   -0.80818900 
C                  -2.81819800    3.41564000    0.48971500 
H                  -1.85933900    3.76539600    0.10432300 
H                  -1.93871915    1.99062200    1.82929299 
12
frag_67
C                   2.89999700   -2.87863100   -1.52179500 
C                   3.70755100   -3.93407200   -1.94195600 
H                   3.54557100   -4.92875400   -1.52121400 
C                   4.70690700   -3.73092500   -2.89025300 
H                   5.32682600   -4.56714100   -3.21258200 
C                   4.90351700   -2.46431300   -3.42843600 
H                   5.68452400   -2.29913800   -4.16995300 
C                   4.10468200   -1.40174600   -3.00971500 
H                   4.28702500   -0.39790400   -3.39619200 
C                   3.10759500   -1.60792000   -2.06393500 
H                   2.48638000   -0.77484800   -1.72338200 
H                   2.09744558   -3.04375374   -0.79968107 
12
frag_68
C                  -1.17416700   -4.46994400   -1.43311400 
C                  -2.52045300   -4.09770400   -1.40091700 
H                  -2.80349700   -3.12124400   -1.79367100 
C                  -3.47650700   -4.94556800   -0.85125200 
H                  -4.52081500   -4.63607700   -0.82080600 
C                  -3.09804800   -6.17584600   -0.31995800 
H                  -3.84647000   -6.83552800    0.11677900 
C                  -1.75909400   -6.55722400   -0.34548400 
H                  -1.45586600   -7.52050000    0.06334100 
C                  -0.80665300   -5.70985300   -0.90409100 
H                   0.23964200   -6.02043500   -0.94737300 
H                  -0.42274800   -3.79998968   -1.85463065 
