30
coor
Ir                 0.00000000    0.00000000    0.00000000
 N                 -2.21147258    0.00241098   -0.42491168
 B                  0.00000000    0.00000000    2.02077729
 B                  2.03541364    0.00000000    0.17507411
 B                  0.09967269    1.97703326    0.22833026
 N                 -0.27950106   -0.58236144   -2.19122792
 C                 -2.62410355   -0.35292770   -1.66441425
 C                 -3.11488941    0.42343725    0.47469361
 C                 -1.55620686   -0.75580555   -2.61556821
 C                  0.73816737   -0.89551851   -3.01186614
 C                 -3.97920513   -0.30549193   -2.01489948
 C                 -4.47685180    0.48819505    0.19488915
 H                 -2.70821622    0.72680925    1.43250144
 C                 -1.82719866   -1.27532467   -3.88710207
 C                  0.53481486   -1.40181001   -4.29423632
 H                  1.72830928   -0.72388997   -2.59967988
 C                 -4.91573655    0.11225211   -1.07375388
 H                 -4.30222211   -0.57552334   -3.01354480
 H                 -5.16971363    0.83245114    0.95556577
 C                 -0.77175911   -1.60092493   -4.73495643
 H                 -2.84858898   -1.43483602   -4.21221795
 H                  1.38730890   -1.63791410   -4.92273028
 H                 -5.96955879    0.15296361   -1.33340634
 H                 -0.97151325   -2.00574929   -5.72297117
 H                 -0.30094930    0.85034378    2.75987503
 H                  0.21383113   -0.98046844    2.60934802
 H                  2.74806769   -0.12458655   -0.75052972
 H                  2.67615821    0.10793895    1.13536304
 H                  1.05160863    2.62697840    0.33364967
 H                 -0.85464571    2.64298391    0.21172613
