5
frag_0
C                  -1.20238400    0.00001300    0.00000000 
H                  -1.50281200   -0.27124700    0.99420100 
H                  -1.50240900    0.99696500   -0.26221700 
H                  -1.50295700   -0.72555500   -0.73198400 
H                   0.01499365   -0.00000437    0.00000000 
2
frag_1
Cl                  0.68955800   -0.00001400    0.00000000 
H                  -0.73803522    0.00000637    0.00000000 
1
frag_2
Cl                -20.00000000    0.00000000    0.00000000 
