15
Conf_0 frag_0
C                   0.00000000    0.00000000    0.00000000 
C                   1.52000000    0.00000000    0.00000000 
C                  -0.82802000    0.00000000   -1.11372000 
C                  -0.54673000    0.07076000    1.28983000 
C                  -2.21220000    0.04584000   -0.93830000 
H                  -0.40127000   -0.04327000   -2.11261000 
C                  -1.92070000    0.12394000    1.46164000 
C                  -2.75562000    0.10661000    0.34115000 
H                  -2.86665000    0.03347000   -1.80499000 
H                  -2.34472000    0.18026000    2.46105000 
H                  -3.83323000    0.14240000    0.47102000 
H                   1.73098000    0.96453000    0.49996000 
H                   1.93307000   -0.06754000   -1.00893000 
H                   1.85916000   -0.80140000    0.67269000 
H                   0.20992000    0.08958000    2.08528000 
15
Conf_0 frag_1
C                   0.00000000    0.00000000    0.00000000 
C                   1.50350000    0.00000000    0.00000000 
C                  -0.55888000    0.00000000   -1.28656000 
C                  -0.82152000    0.01422000    1.11582000 
C                  -1.93633000    0.03156000   -1.45273000 
C                  -2.20836000    0.02843000    0.94909000 
H                  -0.38879000    0.01577000    2.11308000 
C                  -2.76188000    0.03797000   -0.32744000 
H                  -2.36675000    0.04329000   -2.45092000 
H                  -2.85607000    0.03384000    1.82077000 
H                  -3.84096000    0.05000000   -0.45011000 
H                   1.85048000    0.87612000   -0.58055000 
H                   1.93127000   -0.05592000    1.00328000 
H                   1.84598000   -0.81777000   -0.66104000 
H                   0.20176000    0.02501000   -2.08604000 
7
Conf_0 frag_2
C                   0.00000000    0.00000000    0.00000000 
C                   1.52320000    0.00000000    0.00000000 
H                  -0.21043000    0.00000000   -1.08356000 
H                  -0.43590000   -0.86465000    0.50546000 
H                  -0.33001000    0.96596000    0.40963000 
H                   1.90562000    0.94365000   -0.35376000 
H                   2.00052000   -0.92719000   -0.31853000 
5
Conf_0 frag_3
C                   0.00000000    0.00000000    0.00000000 
H                   1.09230000    0.00000000    0.00000000 
H                  -0.41742000    0.00000000   -1.02183000 
H                  -0.44165000    0.92903000    0.40820000 
H                  -0.44351000   -0.84452000    0.54760000 
7
Conf_0 frag_4
C                   0.00000000    0.00000000    0.00000000 
C                   1.51400000    0.00000000    0.00000000 
H                  -0.34036000    0.00000000   -1.05001000 
H                  -0.33205000   -1.00301000    0.32939000 
H                  -0.44044000    0.81619000    0.57704000 
O                   2.00361000   -0.85026000   -0.65266000 
H                   2.07677000    0.72168000    0.58190000 
17
Conf_0 frag_5
C                   0.00000000    0.00000000    0.00000000 
C                   1.52480000    0.00000000    0.00000000 
C                   1.93798000    0.00000000    1.47191000 
C                  -0.82802000    0.98877000   -0.51253000 
C                  -0.54673000   -1.11256000    0.65640000 
C                  -2.21220000    0.85413000   -0.39110000 
H                  -0.40127000    1.85570000   -1.01064000 
C                  -1.92070000   -1.24062000    0.78268000 
C                  -2.75562000   -0.25382000    0.25165000 
H                  -2.86665000    1.61790000   -0.80094000 
H                  -2.34472000   -2.10200000    1.29261000 
H                  -3.83323000   -0.35265000    0.34319000 
H                   1.93787000    0.86466000   -0.52427000 
H                   1.86396000   -0.96603000   -0.40192000 
H                   1.70074000   -0.94365000    1.93570000 
H                   1.76030000    0.92719000    2.01755000 
H                   0.20992000   -1.81012000    1.03917000 
15
Conf_0 frag_6
C                   0.00000000    0.00000000    0.00000000 
C                   1.52480000    0.00000000    0.00000000 
H                   1.93699000    0.00000000    1.01154000 
C                  -0.82802000   -0.07439000    1.11123000 
C                  -0.54673000    0.01556000   -1.29167000 
C                  -2.21220000   -0.10842000    0.93314000 
H                  -0.40127000   -0.09794000    2.11078000 
C                  -1.92070000   -0.02603000   -1.46665000 
C                  -2.75562000   -0.08359000   -0.34751000 
H                  -2.86665000   -0.15397000    1.79872000 
H                  -2.34472000   -0.01547000   -2.46759000 
H                  -3.83323000   -0.11062000   -0.47948000 
H                   1.73578000   -0.92898000   -0.56327000 
H                   1.86396000    0.84454000   -0.61766000 
H                   0.20992000    0.04991000   -2.08660000 
17
Conf_0 frag_7
C                   0.00000000    0.00000000    0.00000000 
C                   1.52480000    0.00000000    0.00000000 
C                   2.02602000    0.00000000    1.43446000 
C                  -0.82802000   -0.85303000   -0.71603000 
C                  -0.54673000    1.03341000    0.77506000 
C                  -2.21220000   -0.68920000   -0.63837000 
H                  -0.40127000   -1.64594000   -1.32510000 
C                  -1.92070000    1.19920000    0.84478000 
C                  -2.75562000    0.32984000    0.13768000 
H                  -2.86665000   -1.36098000   -1.18610000 
H                  -2.34472000    2.00089000    1.44419000 
H                  -3.83323000    0.45232000    0.19377000 
H                   1.73578000    1.00305000   -0.41732000 
H                   1.93787000   -0.81619000   -0.59693000 
O                   1.57138000    0.85026000    2.11195000 
H                   2.76098000   -0.72168000    1.77379000 
H                   0.20992000    1.65477000    1.27206000 
7
Conf_0 frag_8
C                   0.00000000    0.00000000    0.00000000 
C                   1.52880000    0.00000000    0.00000000 
H                   1.97116000    0.00000000    0.99872000 
H                  -0.38242000   -0.17084000   -0.99320000 
H                  -0.47732000    0.74292000    0.63969000 
H                   1.73923000    0.93544000   -0.54685000 
H                   1.85881000   -0.84113000   -0.62719000 
9
Conf_0 frag_9
C                   0.00000000    0.00000000    0.00000000 
C                   1.52880000    0.00000000    0.00000000 
C                   1.81066000    0.00000000    1.49313000 
H                  -0.38242000   -0.69409000    0.73066000 
H                  -0.47732000    0.06873000   -0.97797000 
H                   1.73923000   -0.99757000   -0.42303000 
H                   1.96470000    0.80292000   -0.59869000 
O                   1.30778000   -0.88537000    2.08632000 
H                   2.41040000    0.77802000    1.95263000 
7
Conf_0 frag_10
H                   0.00000000    0.00000000    0.00000000 
C                   1.09230000    0.00000000    0.00000000 
C                   1.71663000    0.00000000    1.38531000 
H                   1.50972000    0.85737000   -0.55593000 
H                   1.53395000   -0.84804000   -0.55727000 
O                   2.89426000    0.04208000    1.39162000 
H                   1.10436000   -0.05853000    2.27853000 
7
Conf_0 frag_11
C                   0.00000000    0.00000000    0.00000000 
C                   1.51090000    0.00000000    0.00000000 
H                  -0.34422000    0.00000000   -1.04265000 
H                  -0.43635000    0.80550000    0.59452000 
H                  -0.19318000   -1.00278000    0.42442000 
H                   1.88768000   -0.70911000   -0.71908000 
H                   1.98033000    0.06477000    0.98293000 
5
Conf_0 frag_12
C                   0.00000000    0.00000000    0.00000000 
H                   1.09000000    0.00000000    0.00000000 
H                  -0.43008000    0.00000000   -1.01026000 
H                  -0.44222000   -0.84244000    0.56546000 
H                  -0.43122000    0.85330000    0.55583000 
7
Conf_0 frag_13
C                   0.00000000    0.00000000    0.00000000 
C                   1.50810000    0.00000000    0.00000000 
H                  -0.34003000    0.00000000   -1.04402000 
H                  -0.19334000    1.00226000    0.42791000 
H                  -0.42584000   -0.81534000    0.58869000 
O                   1.99677000    0.85874000   -0.64218000 
H                   2.06788000   -0.70343000    0.60804000 
17
Conf_0 frag_14
C                   0.00000000    0.00000000    0.00000000 
C                   1.51680000    0.00000000    0.00000000 
C                   2.11496000    0.00000000    1.40714000 
C                  -0.55888000    1.07247000    0.71066000 
C                  -0.82152000   -0.93800000   -0.60450000 
C                  -1.93633000    1.19356000    0.82875000 
C                  -2.20836000   -0.80686000   -0.50055000 
H                  -0.38879000   -1.77017000   -1.15407000 
C                  -2.76188000    0.25198000    0.21252000 
H                  -2.36675000    2.01916000    1.38991000 
H                  -2.85607000   -1.53648000   -0.97753000 
H                  -3.84096000    0.34759000    0.29031000 
H                   1.94457000   -0.80544000   -0.60080000 
H                   1.85928000    1.00276000   -0.31655000 
H                   1.60060000    0.70911000    2.03521000 
H                   3.20321000   -0.06477000    1.45462000 
H                   0.20176000    1.72510000    1.17312000 
15
Conf_0 frag_15
C                   0.00000000    0.00000000    0.00000000 
C                   1.51680000    0.00000000    0.00000000 
H                   1.96917000    0.00000000    0.99401000 
C                  -0.55888000   -0.07159000   -1.28456000 
C                  -0.82152000    0.07629000    1.11330000 
C                  -1.93633000   -0.04933000   -1.45223000 
C                  -2.20836000    0.08120000    0.94603000 
H                  -0.38879000    0.13333000    2.10893000 
C                  -2.76188000    0.01969000   -0.32905000 
H                  -2.36675000   -0.09316000   -2.44953000 
H                  -2.85607000    0.13511000    1.81607000 
H                  -3.84096000    0.02487000   -0.45220000 
H                   1.86378000    0.84245000   -0.62840000 
H                   1.85928000   -0.85329000   -0.61451000 
H                   0.20176000   -0.09111000   -2.08420000 
17
Conf_0 frag_16
C                   0.00000000    0.00000000    0.00000000 
C                   1.51680000    0.00000000    0.00000000 
C                   2.10048000    0.00000000    1.41191000 
C                  -0.55888000   -1.00055000    0.80878000 
C                  -0.82152000    0.85883000   -0.71251000 
C                  -1.93633000   -1.14962000    0.88870000 
C                  -2.20836000    0.72023000   -0.61875000 
H                  -0.38879000    1.63342000   -1.34064000 
C                  -2.76188000   -0.27852000    0.17631000 
H                  -2.36675000   -1.93328000    1.50708000 
H                  -2.85607000    1.39473000   -1.17093000 
H                  -3.84096000   -0.38148000    0.24408000 
H                   1.86378000   -1.00225000   -0.31639000 
H                   1.94457000    0.81540000   -0.58722000 
O                   1.69370000   -0.85874000    2.10886000 
H                   2.87625000    0.70343000    1.69694000 
H                   0.20176000   -1.63803000    1.29192000 
7
Conf_0 frag_17
C                   0.00000000    0.00000000    0.00000000 
C                   1.52900000    0.00000000    0.00000000 
H                   1.98985000    0.00000000    0.99010000 
H                  -0.37678000   -0.15746000   -0.99755000 
H                  -0.46943000    0.75239000    0.63582000 
H                   1.87322000   -0.83890000   -0.61917000 
H                   1.72218000    0.93707000   -0.55462000 
9
Conf_0 frag_18
C                   0.00000000    0.00000000    0.00000000 
C                   1.52900000    0.00000000    0.00000000 
C                   1.37434000    0.00000000    1.51995000 
H                  -0.37678000    0.93866000    0.37259000 
H                  -0.46943000   -0.93044000    0.32347000 
H                   1.87322000    0.96019000   -0.40639000 
H                   1.96535000   -0.86155000   -0.50992000 
O                   0.79003000    0.92779000    1.95169000 
H                   1.72376000   -0.83541000    2.11818000 
7
Conf_0 frag_19
H                   0.00000000    0.00000000    0.00000000 
C                   1.09210000    0.00000000    0.00000000 
C                   1.71911000    0.00000000    1.39321000 
H                   1.52218000   -0.84651000   -0.55141000 
H                   1.53432000    0.93361000   -0.39726000 
O                   2.89736000   -0.01797000    1.39882000 
H                   1.10421000    0.08136000    2.28380000 
6
Conf_0 frag_20
C                   0.00000000    0.00000000    0.00000000 
C                   1.47950000    0.00000000    0.00000000 
H                  -0.38689000    0.00000000   -1.03698000 
H                  -0.53435000   -0.64411000    0.70022000 
H                   1.87214000   -0.30787000   -0.98785000 
H                   2.01743000    0.80801000    0.49670000 
4
Conf_0 frag_21
C                   0.00000000    0.00000000    0.00000000 
H                   1.08410000    0.00000000    0.00000000 
H                  -0.47614000    0.00000000   -0.99915000 
H                  -0.52783000    0.66036000    0.66871000 
9
Conf_0 frag_22
C                   0.00000000    0.00000000    0.00000000 
C                   1.52900000    0.00000000    0.00000000 
C                   2.10964000    0.00000000    1.37123000 
H                  -0.34422000   -0.73210000    0.74239000 
H                  -0.43635000   -0.15610000   -0.98890000 
H                  -0.19318000    1.01208000    0.40173000 
H                   1.99843000    0.64405000   -0.74535000 
H                   1.35309000    0.30787000    2.11798000 
H                   2.77678000   -0.80801000    1.67290000 
7
Conf_0 frag_23
C                   0.00000000    0.00000000    0.00000000 
C                   1.52900000    0.00000000    0.00000000 
H                   2.07691000    0.00000000    0.94367000 
H                  -0.34422000    0.06856000   -1.04039000 
H                  -0.43635000    0.76467000    0.64619000 
H                  -0.19318000   -1.02852000    0.35756000 
H                   1.90578000   -0.66029000   -0.76415000 
6
Conf_0 frag_24
C                   0.00000000    0.00000000    0.00000000 
C                   1.48910000    0.00000000    0.00000000 
H                   2.10229000    0.00000000    0.90262000 
H                  -0.39264000    0.89527000   -0.51876000 
H                  -0.53793000   -0.93095000   -0.18146000 
H                   1.87599000    0.70204000   -0.76319000 
4
Conf_0 frag_25
C                   0.00000000    0.00000000    0.00000000 
H                   1.08690000    0.00000000    0.00000000 
H                  -0.48445000    0.00000000   -0.99503000 
H                  -0.53177000    0.64123000    0.68404000 
9
Conf_0 frag_26
C                   0.00000000    0.00000000    0.00000000 
C                   1.52880000    0.00000000    0.00000000 
C                   2.03273000    0.00000000    1.40124000 
H                  -0.21043000    1.01461000    0.38036000 
H                  -0.43590000   -0.16978000   -0.98706000 
H                  -0.33001000   -0.72264000    0.76070000 
H                   2.00612000    0.62373000   -0.75638000 
H                   1.23205000    0.30854000    2.10033000 
H                   2.66241000   -0.82320000    1.74264000 
7
Conf_0 frag_27
C                   0.00000000    0.00000000    0.00000000 
C                   1.52880000    0.00000000    0.00000000 
H                   2.08550000    0.00000000    0.93758000 
H                  -0.21043000   -1.02477000    0.35206000 
H                  -0.43590000    0.75897000    0.65351000 
H                  -0.33001000    0.07356000   -1.04664000 
H                   1.91122000   -0.64116000   -0.77752000 
6
Conf_0 frag_28
C                   0.00000000    0.00000000    0.00000000 
C                   1.48910000    0.00000000    0.00000000 
H                   2.07288000    0.00000000    0.92096000 
H                  -0.38689000    0.88341000   -0.54305000 
H                  -0.53435000   -0.93384000   -0.18203000 
H                   1.88174000    0.68046000   -0.77948000 
6
Conf_0 frag_29
C                   0.00000000    0.00000000    0.00000000 
C                   1.37400000    0.00000000    0.00000000 
H                  -0.45861000    0.00000000   -1.00633000 
H                  -0.61191000    0.06580000    0.89393000 
H                   1.83099000   -0.01449000   -1.00036000 
H                   1.98311000    0.03507000    0.89660000 
4
Conf_0 frag_30
C                   0.00000000    0.00000000    0.00000000 
H                   1.08510000    0.00000000    0.00000000 
H                  -0.57041000    0.00000000   -0.94744000 
O                  -0.66440000   -0.07585000    0.97028000 
9
Conf_0 frag_31
C                   0.00000000    0.00000000    0.00000000 
C                   1.52780000    0.00000000    0.00000000 
C                   2.13361000    0.00000000    1.19154000 
H                  -0.34003000    0.83609000    0.62525000 
H                  -0.19334000   -0.94292000    0.54637000 
H                  -0.42584000    0.01685000   -1.00551000 
H                   2.08758000   -0.06567000   -0.92747000 
H                   1.44900000    0.01449000    2.05228000 
H                   3.20890000   -0.03507000    1.32815000 
7
Conf_0 frag_32
C                   0.00000000    0.00000000    0.00000000 
C                   1.52780000    0.00000000    0.00000000 
H                   2.06124000    0.00000000    0.94516000 
H                  -0.34003000   -0.78984000   -0.68274000 
H                  -0.19334000    0.97916000   -0.47841000 
H                  -0.42584000   -0.08800000    1.00180000 
O                   2.01647000    0.07573000   -1.06962000 
6
Conf_0 frag_33
C                   0.00000000    0.00000000    0.00000000 
C                   1.33670000    0.00000000    0.00000000 
H                   1.93635000    0.00000000    0.90460000 
H                  -0.45699000   -0.05881000   -0.99874000 
H                  -0.60911000    0.03085000    0.89676000 
H                   1.79531000   -0.07388000   -1.00361000 
4
Conf_0 frag_34
C                   0.00000000    0.00000000    0.00000000 
H                   1.08280000    0.00000000    0.00000000 
H                  -0.57076000    0.00000000   -0.94022000 
O                  -0.66185000    0.02552000    0.97464000 
9
Conf_0 frag_35
C                   0.00000000    0.00000000    0.00000000 
C                   1.51950000    0.00000000    0.00000000 
C                   2.01547000    0.00000000    1.24128000 
H                  -0.34036000   -0.83292000    0.63935000 
H                  -0.33205000    0.87202000    0.59507000 
H                  -0.44044000   -0.03924000   -0.99879000 
H                   2.08227000    0.02200000   -0.92679000 
H                   1.25125000    0.01458000    2.04050000 
H                   3.07344000    0.05269000    1.47750000 
7
Conf_0 frag_36
C                   0.00000000    0.00000000    0.00000000 
C                   1.51950000    0.00000000    0.00000000 
H                   2.10092000    0.00000000    0.91547000 
H                  -0.34036000    0.81740000   -0.65908000 
H                  -0.33205000   -0.88600000   -0.57405000 
H                  -0.44044000    0.06311000    0.99757000 
O                   2.00911000   -0.02544000   -1.07157000 
6
Conf_0 frag_37
C                   0.00000000    0.00000000    0.00000000 
C                   1.33670000    0.00000000    0.00000000 
H                   1.93953000    0.00000000    0.90152000 
H                  -0.45861000    0.03933000   -1.00556000 
H                  -0.61191000    0.03081000    0.89582000 
H                   1.79369000    0.02462000   -1.00017000 
12
Conf_0 frag_38
C                   2.79351806   -0.65088616   -0.02677095 
C                   1.59975240   -1.37268551   -0.03811757 
C                   0.38785976   -0.69510738   -0.03325655 
C                   0.36490352    0.70586927   -0.00814656 
C                   1.55316416    1.42252079    0.00313709 
C                   2.77056870    0.74056425   -0.00687389 
H                   3.74342350   -1.17753341   -0.03351796 
H                   1.61527052   -2.45973624   -0.05335152 
H                   1.53425137    2.50944822    0.02056343 
H                   3.70207042    1.29882349    0.00165434 
H                  -0.61308839   -1.15193534   -0.02283644 
H                  -0.63192899    1.14281736   -0.00450630 
