5
Conf_0 frag_0
C                  -1.01215379    1.30948377   -0.00311779 
H                  -1.02770578    2.39879619   -0.03739471 
H                  -0.01532128    0.87253568   -0.00675805 
H                  -1.67289859    0.86174324    0.74467141 
H                  -1.68072727    0.82900927   -0.72001134 
4
Conf_0 frag_1
C                  -1.92492845    0.69096023    1.02990288 
H                  -2.82789693    1.20645666    1.33675372 
H                  -1.26418365    1.13870076    0.28211368 
H                  -1.75725980   -0.35872783    1.16043845 
4
Conf_0 frag_2
C                  -1.69330545   -0.75911349    1.21022902 
H                  -1.54463998   -1.20737477    2.18919847 
H                  -1.18772724   -1.16960832    0.32050733 
H                  -1.86097410    0.29057457    1.07969345 
5
Conf_0 frag_3
C                  -0.99488303   -1.32618459   -0.01886187 
H                  -0.95025381   -2.41738988   -0.03819589 
H                   0.00606512   -0.86935663   -0.02928198 
H                  -1.50046124   -0.91568976    0.87085982 
H                  -1.60141700   -0.88604367   -0.81859339 
6
Conf_0 frag_4
C                  -1.93574325    0.64574045   -0.99345819 
C                  -1.83276906   -0.71815940   -1.12363738 
H                  -2.48025870   -1.31302554   -1.75554645 
H                  -2.66898394    1.24485641   -1.52333872 
H                  -1.26716977    1.12621495   -0.27656464 
H                  -1.22623509   -1.15830032   -0.32390586 
12
Conf_0 frag_5
C                   2.79351806   -0.65088616   -0.02677095 
C                   1.59975240   -1.37268551   -0.03811757 
C                   0.38785976   -0.69510738   -0.03325655 
C                   0.36490352    0.70586927   -0.00814656 
C                   1.55316416    1.42252079    0.00313709 
C                   2.77056870    0.74056425   -0.00687389 
H                   3.74342350   -1.17753341   -0.03351796 
H                   1.61527052   -2.45973624   -0.05335152 
H                   1.53425137    2.50944822    0.02056343 
H                   3.70207042    1.29882349    0.00165434 
H                  -0.61308839   -1.15193534   -0.02283644 
H                  -0.63192899    1.14281736   -0.00450630 
