7 

N                  -3.35386106   -0.00000260    0.00087363 
C                  -2.17974592    0.00000645   -0.00087774 
C                  -0.28359072    0.00000547   -0.00112678 
H                  -0.10358706    0.92399559   -0.52985293 
H                  -0.10430442   -0.00386662    1.06350694 
H                  -0.10360580   -0.92011672   -0.53655920 
Cl                  2.19733631   -0.00000341    0.00042176 

