7 

N                  -3.40385195   -0.00000327    0.00100078 
C                  -2.23167095    0.00000650   -0.00097745 
C                  -0.10370856    0.00000404   -0.00116751 
H                  -0.10038850    0.93451088   -0.53604960 
H                  -0.10128175   -0.00392879    1.07555262 
H                  -0.10039205   -0.93055634   -0.54288499 
Cl                  2.17317300   -0.00000305    0.00043279 

