7 

N                  -3.62448571   -0.00000466    0.00150123 
C                  -2.44950325   -0.00003542   -0.00115646 
C                   0.36059618    0.00003890   -0.00160605 
H                   0.02331116    0.89454844   -0.51440946 
H                   0.02121668   -0.00358578    1.02868652 
H                   0.02328435   -0.89082515   -0.52068757 
Cl                  2.16628417   -0.00000329    0.00053158 

