7 

N                  -3.44927762   -0.00000378    0.00110102 
C                  -2.27806396    0.00000915   -0.00112661 
C                   0.07083398    0.00000280   -0.00114122 
H                  -0.09843764    0.92382890   -0.53009953 
H                  -0.09935803   -0.00390005    1.06320849 
H                  -0.09844758   -0.91991722   -0.53686401 
Cl                  2.14721948   -0.00000293    0.00044556 

