7 

N                  -3.59021246   -0.00000612    0.00142370 
C                  -2.41564540   -0.00001637   -0.00153201 
C                   0.34297774    0.00002620   -0.00108871 
H                   0.00713918    0.89461459   -0.51388928 
H                   0.00529879   -0.00357922    1.02939985 
H                   0.00713009   -0.89093945   -0.52014263 
Cl                  2.14837732   -0.00000369    0.00046272 

