7 

N                  -3.50902707   -0.00000545    0.00122534 
C                  -2.33607083    0.00001841   -0.00145600 
C                   0.26427097    0.00000020   -0.00090257 
H                  -0.04603282    0.90023287   -0.51618157 
H                  -0.04627350   -0.00376040    1.03620455 
H                  -0.04601883   -0.89647465   -0.52269374 
Cl                  2.12011976   -0.00000415    0.00039566 

