7 

N                  -3.35934069   -0.00000265    0.00088632 
C                  -2.18538113    0.00000636   -0.00088901 
C                  -0.26513898    0.00000529   -0.00112862 
H                  -0.10189639    0.92588582   -0.53095362 
H                  -0.10260105   -0.00387493    1.06567552 
H                  -0.10191100   -0.92199689   -0.53767682 
Cl                  2.19498571   -0.00000335    0.00042263 

