7 

N                  -3.47763043   -0.00000429    0.00115287 
C                  -2.30581404    0.00001454   -0.00126686 
C                   0.17562323    0.00000051   -0.00106738 
H                  -0.07982407    0.91108683   -0.52258621 
H                  -0.08029806   -0.00385456    1.04852381 
H                  -0.07983794   -0.90723389   -0.52925337 
Cl                  2.13051440   -0.00000340    0.00043493 

